pglib_opf_case2316_sdet/dapi/pglib_opf_case2316_sdet_6regions_dapi.m
% -------------------------------------------------------------------------
% Partitioned MATPOWER Case File
% Copyright (c) 2025 Milad Hasanzadeh
% Generated on: 2026-06-14
% This file contains partitioned data for 6 regions


% -------------------- mpc_regionR1 --------------------

mpc_regionR1.version = '2';
mpc_regionR1.baseMVA = 100.0000;
mpc_regionR1.bus = [
%	bus_i       type        Pd          Qd          Gs          Bs          area        Vm          Va          baseKV      zone        Vmax        Vmin        
	 1	 1	 0	 0	 0	 0	 4	 1	 0	 345	 4	 1.1	 0.9;
	 2	 1	 0	 0	 0	-18.63	 4	 1	 0	 345	 4	 1.1	 0.9;
	 3	 2	 0	 0	 0	-102.36	 10	 1	 0	 500	 10	 1.1	 0.9;
	 4	 1	 0.01	 49.53	 0	 0	 10	 1	 0	 500	 10	 1.1	 0.9;
	 5	 1	 354.04	 80.13	 0	 0	 10	 1	 0	 500	 10	 1.1	 0.9;
	 6	 1	 0	 0	 0	 0	 10	 1	 0	 500	 10	 1.1	 0.9;
	 7	 2	 35.53	 66	 0	 0	 10	 1	 0	 500	 10	 1.1	 0.9;
	 8	 1	 0	 0	 0	 0	 10	 1	 0	 500	 10	 1.1	 0.9;
	 9	 1	 16.31	 4.82	 0	 0	 10	 1	 0	 138	 10	 1.1	 0.9;
	 10	 1	 0	 0	 0	 0	 10	 1	 0	 138	 10	 1.1	 0.9;
	 11	 2	 10.15	 3	 0	 8.01	 10	 1	 0	 138	 10	 1.1	 0.9;
	 12	 1	 40	 0	 0	-7.01	 10	 1	 0	 138	 10	 1.1	 0.9;
	 13	 2	 16.8	 4.41	 0	 0	 10	 1	 0	 138	 10	 1.1	 0.9;
	 14	 2	 40	 0	 0	 0	 10	 1	 0	 500	 10	 1.1	 0.9;
	 15	 2	 77	 0	 0	 0	 10	 1	 0	 500	 10	 1.1	 0.9;
	 16	 1	 0.47	 0	 0	 0	 13	 1	 0	 69	 13	 1.1	 0.9;
	 17	 1	 48.84	 12.2	 0	 0	 13	 1	 0	 69	 13	 1.1	 0.9;
	 18	 1	 3.35	 0.41	 0	 0	 13	 1	 0	 138	 13	 1.1	 0.9;
	 19	 2	 0	 0	 0	 0	 13	 1	 0	 345	 13	 1.1	 0.9;
	 20	 2	 39.22	 33	 0	 0	 13	 1	 0	 25	 13	 1.1	 0.9;
	 21	 1	 15.05	 4.85	 0	 0	 13	 1	 0	 69	 13	 1.1	 0.9;
	 22	 1	 12.8	-6.25	 0	 0	 13	 1	 0	 69	 13	 1.1	 0.9;
	 23	 1	 3.14	-1.62	 0	 0	 13	 1	 0	 69	 13	 1.1	 0.9;
	 24	 1	 9.16	-0.38	 0	 0	 13	 1	 0	 138	 13	 1.1	 0.9;
	 25	 1	 0	 0	 0	 0	 13	 1	 0	 138	 13	 1.1	 0.9;
	 26	 1	 2.04	-2.39	 0	 0	 13	 1	 0	 69	 13	 1.1	 0.9;
	 27	 1	 26.54	 4.14	 0	 0	 13	 1	 0	 138	 13	 1.1	 0.9;
	 28	 1	 31.18	 3.4	 0	 0	 13	 1	 0	 69	 13	 1.1	 0.9;
	 29	 1	 6.13	 0.3	 0	 0	 13	 1	 0	 138	 13	 1.1	 0.9;
	 30	 1	 7.66	 2.39	 0	 0	 13	 1	 0	 69	 13	 1.1	 0.9;
	 31	 1	 12.05	-2.89	 0	 0	 13	 1	 0	 69	 13	 1.1	 0.9;
	 32	 1	 42.08	 33.6	 0	 0	 13	 1	 0	 69	 13	 1.1	 0.9;
	 33	 1	 21.8	 6.26	 0	 0	 13	 1	 0	 138	 13	 1.1	 0.9;
	 34	 1	 36.32	 8.04	 0	 0	 13	 1	 0	 138	 13	 1.1	 0.9;
	 35	 1	 9.24	 8	 0	 0	 13	 1	 0	 69	 13	 1.1	 0.9;
	 36	 1	 44.22	 13.61	 0	 0	 13	 1	 0	 69	 13	 1.1	 0.9;
	 37	 1	 0	 0	 0	 0	 13	 1	 0	 69	 13	 1.1	 0.9;
	 38	 1	 207.5	 24.37	 0	 0	 13	 1	 0	 34.5	 13	 1.1	 0.9;
	 39	 1	-0.67	-1.36	 0	 0	 13	 1	 0	 138	 13	 1.1	 0.9;
	 40	 1	 12.07	 0.89	 0	 0	 13	 1	 0	 69	 13	 1.1	 0.9;
	 41	 1	 19.25	 7.04	 0	 0	 13	 1	 0	 138	 13	 1.1	 0.9;
	 42	 1	 0	 0	 0	 0	 13	 1	 0	 138	 13	 1.1	 0.9;
	 43	 2	-1.95	 0	 0	 0	 13	 1	 0	 18	 13	 1.1	 0.9;
	 44	 1	 0.13	 3.98	 0	 0	 13	 1	 0	 69	 13	 1.1	 0.9;
	 45	 2	 0	 0	 0	 0	 13	 1	 0	 18	 13	 1.1	 0.9;
	 46	 2	 0	 0	 0	 0	 13	 1	 0	 18	 13	 1.1	 0.9;
	 47	 1	 0	 0	 0	 23.8	 13	 1	 0	 69	 13	 1.1	 0.9;
	 48	 1	 0	 0	 0	 0	 13	 1	 0	 69	 13	 1.1	 0.9;
	 49	 2	 0	 0	 0	 0	 13	 1	 0	 345	 13	 1.1	 0.9;
	 50	 1	 0	 0	 0	 0	 13	 1	 0	 138	 13	 1.1	 0.9;
	 51	 1	 54.3	 13.48	 0	 0	 13	 1	 0	 69	 13	 1.1	 0.9;
	 52	 1	 19.31	 4.86	 0	 0	 13	 1	 0	 69	 13	 1.1	 0.9;
	 53	 1	 23.6	 3.72	 0	 0	 13	 1	 0	 138	 13	 1.1	 0.9;
	 54	 1	 14.86	 3.32	 0	 10	 13	 1	 0	 69	 13	 1.1	 0.9;
	 55	 1	 0	 0	 0	 0	 13	 1	 0	 138	 13	 1.1	 0.9;
	 56	 1	 1.76	 3.48	 0	 0	 13	 1	 0	 69	 13	 1.1	 0.9;
	 57	 1	-6.36	-3.04	 0	 0	 13	 1	 0	 69	 13	 1.1	 0.9;
	 58	 1	 8.64	-0.16	 0	 0	 13	 1	 0	 138	 13	 1.1	 0.9;
	 59	 1	 7.09	 1.52	 0	 0	 13	 1	 0	 138	 13	 1.1	 0.9;
	 60	 1	 215.8	 20.78	 0	 0	 13	 1	 0	 138	 13	 1.1	 0.9;
	 61	 1	 26.01	 7.04	 0	 0	 13	 1	 0	 138	 13	 1.1	 0.9;
	 62	 1	 3.91	-2.06	 0	 0	 13	 1	 0	 69	 13	 1.1	 0.9;
	 63	 1	 4.24	 1.42	 0	 0	 13	 1	 0	 69	 13	 1.1	 0.9;
	 64	 1	 2.55	 0.66	 0	 0	 13	 1	 0	 138	 13	 1.1	 0.9;
	 65	 1	 3.91	-0.93	 0	 0	 13	 1	 0	 138	 13	 1.1	 0.9;
	 66	 1	 20.76	 4.28	 0	 0	 13	 1	 0	 138	 13	 1.1	 0.9;
	 67	 1	-1.87	-4.66	 0	 0	 13	 1	 0	 69	 13	 1.1	 0.9;
	 68	 1	 0	 0	 0	 0	 13	 1	 0	 138	 13	 1.1	 0.9;
	 69	 1	 34.82	 6.82	 0	 0	 13	 1	 0	 69	 13	 1.1	 0.9;
	 70	 1	 17.97	 10.18	 0	 0	 13	 1	 0	 69	 13	 1.1	 0.9;
	 71	 1	 0	 0	 0	 0	 13	 1	 0	 345	 13	 1.1	 0.9;
	 72	 1	 0.2	 0.44	 0	 0	 13	 1	 0	 138	 13	 1.1	 0.9;
	 73	 1	 0	 0	 0	 0	 13	 1	 0	 138	 13	 1.1	 0.9;
	 74	 1	 5.33	-0.13	 0	 0	 13	 1	 0	 34.5	 13	 1.1	 0.9;
	 75	 1	 2.33	-0.56	 0	 0	 13	 1	 0	 69	 13	 1.1	 0.9;
	 76	 1	-4.22	-12.54	 0	 0	 13	 1	 0	 69	 13	 1.1	 0.9;
	 77	 1	 13.27	 1.67	 0	 0	 13	 1	 0	 138	 13	 1.1	 0.9;
	 78	 2	 56.77	 9.8	 0	 0	 13	 1	 0	 138	 13	 1.1	 0.9;
	 79	 1	-12.48	 21.98	 0	 0	 13	 1	 0	 69	 13	 1.1	 0.9;
	 80	 1	 0	 0	 0	 0	 13	 1	 0	 138	 13	 1.1	 0.9;
	 81	 1	 0	 0	 0	 0	 13	 1	 0	 138	 13	 1.1	 0.9;
	 82	 1	 20.57	 0.17	 0	 0	 13	 1	 0	 138	 13	 1.1	 0.9;
	 83	 1	 1.51	-0.98	 0	-10	 13	 1	 0	 69	 13	 1.1	 0.9;
	 84	 1	 0	 0	 0	 10	 13	 1	 0	 69	 13	 1.1	 0.9;
	 85	 1	 0	 0	 0	 0	 13	 1	 0	 138	 13	 1.1	 0.9;
	 86	 1	 9.84	-3.37	 0	 0	 13	 1	 0	 138	 13	 1.1	 0.9;
	 87	 1	 0	 0	 0	 0	 13	 1	 0	 69	 13	 1.1	 0.9;
	 88	 1	 3.73	-1.55	 0	 0	 13	 1	 0	 138	 13	 1.1	 0.9;
	 89	 1	-1.91	-4.76	 0	 0	 13	 1	 0	 69	 13	 1.1	 0.9;
	 90	 2	 0	 0	 0	 0	 13	 1	 0	 14.4	 13	 1.1	 0.9;
	 91	 1	 3.92	 1.36	 0	 0	 13	 1	 0	 138	 13	 1.1	 0.9;
	 92	 1	-0.68	-5.98	 0	 0	 13	 1	 0	 69	 13	 1.1	 0.9;
	 93	 1	 8.45	-12.58	 0	 0	 13	 1	 0	 69	 13	 1.1	 0.9;
	 94	 1	 12.05	 12.6	 0	 0	 13	 1	 0	 69	 13	 1.1	 0.9;
	 95	 2	 0	 0	 0	 0	 13	 1	 0	 69	 13	 1.1	 0.9;
	 96	 1	-0.4	-2.12	 0	 0	 13	 1	 0	 138	 13	 1.1	 0.9;
	 97	 2	 0	 0	 0	 0	 13	 1	 0	 69	 13	 1.1	 0.9;
	 98	 1	 0	 0	 0	 0	 13	 1	 0	 69	 13	 1.1	 0.9;
	 99	 1	 2.94	-2.52	 0	 0	 13	 1	 0	 69	 13	 1.1	 0.9;
	 100	 1	 27.2	 2.18	 0	 0	 13	 1	 0	 138	 13	 1.1	 0.9;
	 101	 2	 3.99	-19.24	 0	 0	 13	 1	 0	 138	 13	 1.1	 0.9;
	 102	 2	 59.98	 13.87	 0	 17.6	 13	 1	 0	 34.5	 13	 1.1	 0.9;
	 103	 2	 0	 0	 0	 0	 13	 1	 0	 69	 13	 1.1	 0.9;
	 104	 1	 9.59	 3.41	 0	 0	 13	 1	 0	 69	 13	 1.1	 0.9;
	 105	 1	-0.18	-1.39	 0	 0	 13	 1	 0	 138	 13	 1.1	 0.9;
	 106	 1	 15.53	 5.43	 0	 0	 13	 1	 0	 138	 13	 1.1	 0.9;
	 107	 2	 14.91	-5.13	 0	 4.22	 13	 1	 0	 138	 13	 1.1	 0.9;
	 108	 1	-2.06	-1.5	 0	 0	 13	 1	 0	 138	 13	 1.1	 0.9;
	 109	 1	 23.69	 10.55	 0	 0	 13	 1	 0	 138	 13	 1.1	 0.9;
	 110	 1	 0	 0	 0	 0	 13	 1	 0	 138	 13	 1.1	 0.9;
	 111	 1	 0	 0	 0	 0	 13	 1	 0	 69	 13	 1.1	 0.9;
	 112	 1	-25.07	-0.33	 0	 0	 13	 1	 0	 69	 13	 1.1	 0.9;
	 113	 1	 3.26	-1.52	 0	 0	 13	 1	 0	 138	 13	 1.1	 0.9;
	 114	 1	 13.39	-1.39	 0	 0	 13	 1	 0	 138	 13	 1.1	 0.9;
	 115	 1	 1.17	 0.21	 0	 0	 13	 1	 0	 69	 13	 1.1	 0.9;
	 116	 1	 0	 0	 0	 47.5	 13	 1	 0	 138	 13	 1.1	 0.9;
	 117	 1	 0	 0	 0	 0	 13	 1	 0	 69	 13	 1.1	 0.9;
	 118	 1	 20.04	-5.42	 0	 0	 13	 1	 0	 138	 13	 1.1	 0.9;
	 119	 2	 7.56	 1.14	 0	 0	 13	 1	 0	 18	 13	 1.1	 0.9;
	 120	 1	 4.39	-1.35	 0	 0	 13	 1	 0	 138	 13	 1.1	 0.9;
	 121	 1	 0	 0	 0	 0	 13	 1	 0	 345	 13	 1.1	 0.9;
	 122	 1	 0	 0	 0	 0	 13	 1	 0	 69	 13	 1.1	 0.9;
	 123	 2	 11.88	-2.66	 0	 0	 13	 1	 0	 69	 13	 1.1	 0.9;
	 124	 1	 18.39	 29.12	 0	 0	 13	 1	 0	 69	 13	 1.1	 0.9;
	 125	 1	 16.17	 7.44	 0	 0	 13	 1	 0	 138	 13	 1.1	 0.9;
	 126	 1	 23.11	 4.99	 0	 26	 13	 1	 0	 138	 13	 1.1	 0.9;
	 127	 1	-0.95	-9.43	 0	 0	 13	 1	 0	 69	 13	 1.1	 0.9;
	 128	 1	 0	 0	 0	 0	 13	 1	 0	 69	 13	 1.1	 0.9;
	 129	 2	 0	 0	 0	 0	 13	 1	 0	 138	 13	 1.1	 0.9;
	 130	 1	 0	 0	 0	 0	 13	 1	 0	 138	 13	 1.1	 0.9;
	 131	 1	 51.87	 8.82	 0	 0	 13	 1	 0	 138	 13	 1.1	 0.9;
	 132	 1	 35.86	 9.2	 0	 0	 13	 1	 0	 138	 13	 1.1	 0.9;
	 133	 1	 0	 0	 0	 0	 13	 1	 0	 138	 13	 1.1	 0.9;
	 134	 1	 6.36	-5.87	 0	 0	 13	 1	 0	 69	 13	 1.1	 0.9;
	 135	 1	 0	 0	 0	 0	 13	 1	 0	 345	 13	 1.1	 0.9;
	 136	 2	 0	 0	 0	 0	 13	 1	 0	 14.4	 13	 1.1	 0.9;
	 137	 1	 17.62	 5.34	 0	 0	 13	 1	 0	 138	 13	 1.1	 0.9;
	 138	 1	 0	 0	 0	 0	 13	 1	 0	 69	 13	 1.1	 0.9;
	 139	 1	 0	 0	 0	 0	 13	 1	 0	 69	 13	 1.1	 0.9;
	 140	 1	 45.88	 12.81	 0	 0	 13	 1	 0	 138	 13	 1.1	 0.9;
	 141	 1	 0	 0	 0	 0	 13	 1	 0	 138	 13	 1.1	 0.9;
	 142	 1	 12.19	 3.4	 0	 0	 13	 1	 0	 69	 13	 1.1	 0.9;
	 143	 1	 8.49	-5.95	 0	 0	 13	 1	 0	 69	 13	 1.1	 0.9;
	 144	 1	 10.85	 4.59	 0	 0	 13	 1	 0	 138	 13	 1.1	 0.9;
	 145	 1	 0.91	-0.46	 0	 0	 13	 1	 0	 69	 13	 1.1	 0.9;
	 146	 1	 16.41	 4.89	 0	 0	 13	 1	 0	 138	 13	 1.1	 0.9;
	 147	 1	 14.35	 18.78	 0	 21.6	 13	 1	 0	 69	 13	 1.1	 0.9;
	 148	 1	 0	 0	 0	 0	 13	 1	 0	 345	 13	 1.1	 0.9;
	 149	 1	 13.66	-2.46	 0	 0	 13	 1	 0	 69	 13	 1.1	 0.9;
	 150	 1	 1.47	-6	 0	 0	 13	 1	 0	 138	 13	 1.1	 0.9;
	 151	 1	 3.53	 1.99	 0	 0	 13	 1	 0	 69	 13	 1.1	 0.9;
	 152	 1	 26.86	 12.42	 0	 0	 13	 1	 0	 69	 13	 1.1	 0.9;
	 153	 1	 12.18	 2.04	 0	 0	 13	 1	 0	 138	 13	 1.1	 0.9;
	 154	 1	 0	 0	 0	 0	 13	 1	 0	 138	 13	 1.1	 0.9;
	 155	 1	 0	 0	 0	 0	 13	 1	 0	 69	 13	 1.1	 0.9;
	 156	 1	 0	 0	 0	 0	 13	 1	 0	 138	 13	 1.1	 0.9;
	 157	 1	 1.71	 0.51	 0	 0	 13	 1	 0	 138	 13	 1.1	 0.9;
	 158	 1	 20.91	-13.07	 0	 0	 13	 1	 0	 69	 13	 1.1	 0.9;
	 159	 2	 2.55	 5.82	 0	 0	 13	 1	 0	 18	 13	 1.1	 0.9;
	 160	 1	 14.92	 0.54	 0	 21.6	 13	 1	 0	 69	 13	 1.1	 0.9;
	 161	 1	 7.14	 2.06	 0	 0	 13	 1	 0	 138	 13	 1.1	 0.9;
	 162	 1	 6.74	 3.4	 0	 0	 13	 1	 0	 69	 13	 1.1	 0.9;
	 163	 1	 4.29	-0.04	 0	 0	 13	 1	 0	 138	 13	 1.1	 0.9;
	 164	 1	 12.89	-13.46	 0	 21.6	 13	 1	 0	 138	 13	 1.1	 0.9;
	 165	 2	 0	 0	 0	 0	 13	 1	 0	 23	 13	 1.1	 0.9;
	 166	 1	 7.45	 2.16	 0	 0	 13	 1	 0	 69	 13	 1.1	 0.9;
	 167	 1	 8.86	 0.92	 0	 0	 13	 1	 0	 138	 13	 1.1	 0.9;
	 168	 1	 17.51	 1.01	 0	 0	 13	 1	 0	 69	 13	 1.1	 0.9;
	 169	 1	 19.16	-3.52	 0	 0	 13	 1	 0	 138	 13	 1.1	 0.9;
	 170	 1	 17.79	 3.08	 0	 0	 13	 1	 0	 138	 13	 1.1	 0.9;
	 171	 1	 8.22	 15.74	 0	 0	 13	 1	 0	 138	 13	 1.1	 0.9;
	 172	 1	-4.89	-0.93	 0	 0	 13	 1	 0	 69	 13	 1.1	 0.9;
	 173	 2	 13.22	-4.8	 0	 0	 13	 1	 0	 138	 13	 1.1	 0.9;
	 174	 2	 23.92	-5.24	 0	 0	 13	 1	 0	 69	 13	 1.1	 0.9;
	 175	 1	 0	 0	 0	 0	 13	 1	 0	 69	 13	 1.1	 0.9;
	 176	 1	 11.52	 2.54	 0	 0	 13	 1	 0	 138	 13	 1.1	 0.9;
	 177	 1	 20.89	-1.14	 0	 0	 13	 1	 0	 138	 13	 1.1	 0.9;
	 178	 2	 0	 0	 0	 0	 13	 1	 0	 18	 13	 1.1	 0.9;
	 179	 1	 26.47	 9.38	 0	 0	 13	 1	 0	 69	 13	 1.1	 0.9;
	 180	 1	 2.77	 0.39	 0	 0	 13	 1	 0	 69	 13	 1.1	 0.9;
	 181	 1	 0	 0	 0	 0	 13	 1	 0	 138	 13	 1.1	 0.9;
	 182	 1	 214.5	-27.15	 0	 0	 13	 1	 0	 345	 13	 1.1	 0.9;
	 183	 1	 6.39	-3.29	 0	 0	 13	 1	 0	 69	 13	 1.1	 0.9;
	 184	 1	 4.41	-0.69	 0	 0	 13	 1	 0	 69	 13	 1.1	 0.9;
	 185	 1	 4.15	 1.23	 0	 0	 13	 1	 0	 69	 13	 1.1	 0.9;
	 186	 1	 1.03	-2.1	 0	 0	 13	 1	 0	 138	 13	 1.1	 0.9;
	 187	 2	 0	 0	 0	 0	 13	 1	 0	 14.4	 13	 1.1	 0.9;
	 188	 2	 0	 0	 0	 28.8	 13	 1	 0	 345	 13	 1.1	 0.9;
	 189	 1	 34.18	 12.18	 0	 0	 13	 1	 0	 138	 13	 1.1	 0.9;
	 190	 1	 0	 0	 0	 0	 13	 1	 0	 69	 13	 1.1	 0.9;
	 191	 1	 7.16	 0.77	 0	 0	 13	 1	 0	 69	 13	 1.1	 0.9;
	 192	 1	 16.36	 3.74	 0	 0	 13	 1	 0	 69	 13	 1.1	 0.9;
	 193	 1	 0	 0	 0	 0	 13	 1	 0	 69	 13	 1.1	 0.9;
	 194	 1	 16.96	-11.56	 0	 0	 13	 1	 0	 69	 13	 1.1	 0.9;
	 195	 1	 0	 0	 0	 0	 13	 1	 0	 69	 13	 1.1	 0.9;
	 196	 1	 7.75	 3.04	 0	 0	 13	 1	 0	 69	 13	 1.1	 0.9;
	 197	 1	 0	 0	 0	 0	 13	 1	 0	 69	 13	 1.1	 0.9;
	 198	 1	 0.05	 0.8	 0	 0	 13	 1	 0	 138	 13	 1.1	 0.9;
	 199	 1	 22.15	 14.76	 0	 0	 13	 1	 0	 69	 13	 1.1	 0.9;
	 200	 1	 0	 0	 0	 0	 13	 1	 0	 138	 13	 1.1	 0.9;
...
];

mpc_regionR1.gen = [
%	bus         Pg          Qg          Qmax        Qmin        Vg          mBase       status      Pmax        Pmin        Pc1         Pc2         Qc1min      Qc1max      Qc2min      Qc2max      ramp_agc    ramp_10     ramp_30     ramp_q      apf         
	 3	 0	 0	 150	-150	 1	 100	 0	 299	 34.905	 0	 0	 0	 0	 0	 0	 0	 0	 0	 0	 84.808;
	 7	 171.75	 1	 140	-138	 1	 270.08	 1	 276	 67.5	 0	 0	 0	 0	 0	 0	 0	 0	 0	 0	 271.6;
	 7	 136.75	 17	 137	-103	 1	 246.1	 1	 206	 67.5	 0	 0	 0	 0	 0	 0	 0	 0	 0	 0	 265.886;
	 11	 0	 0	 33.33	-33.33	 1	 100	 0	 15	 6.105	 0	 0	 0	 0	 0	 0	 0	 0	 0	 0	 27.211;
	 13	 55.195	 70.5	 187	-46	 1	 100	 1	 91	 19.39	 0	 0	 0	 0	 0	 0	 0	 0	 0	 0	 83.851;
	 14	 50	 1	 180	-178	 1	 34.76	 1	 100	 0	 0	 0	 0	 0	 0	 0	 0	 0	 0	 0	 252;
	 15	 56.5	 8	 189	-173	 1	 19.32	 1	 113	 0	 0	 0	 0	 0	 0	 0	 0	 0	 0	 0	 268;
	 19	 485.12	 0	 456	-456	 1	 100	 1	 912	 58.24	 0	 0	 0	 0	 0	 0	 0	 0	 0	 0	 162.214;
	 20	 817.795	 0	 621	-621	 1	 1068	 1	 1242	 393.59	 0	 0	 0	 0	 0	 0	 0	 0	 0	 0	 1180.774;
	 43	 0	 0	 33.33	-33.33	 1	 100	 0	 52	 21.375	 0	 0	 0	 0	 0	 0	 0	 0	 0	 0	 131.25;
	 45	 0	 0	 56.67	-56.67	 1	 170	 0	 98	 72.2	 0	 0	 0	 0	 0	 0	 0	 0	 0	 0	 160.65;
	 46	 0	 0	 56.67	-56.67	 1	 170	 0	 144.4	 28	 0	 0	 0	 0	 0	 0	 0	 0	 0	 0	 160.65;
	 49	 159.7325	 0	 129	-129	 1	 100	 1	 257	 62.465	 0	 0	 0	 0	 0	 0	 0	 0	 0	 0	 205.663;
	 78	 247.23	 0	 232	-232	 1	 100	 1	 464	 30.46	 0	 0	 0	 0	 0	 0	 0	 0	 0	 0	 108.062;
	 90	 0	 0	 48.33	-48.33	 1	 145	 0	 113.05	 33	 0	 0	 0	 0	 0	 0	 0	 0	 0	 0	 124.95;
	 95	 0	 0	 33.33	-33.33	 1	 100	 0	 30	 0	 0	 0	 0	 0	 0	 0	 0	 0	 0	 0	 33.6;
	 97	 102.0375	 0	 101	-101	 1	 100	 1	 202	 2.075	 0	 0	 0	 0	 0	 0	 0	 0	 0	 0	 264;
	 101	 0	 0	 24	-24	 1	 30	 0	 48	 5.225	 0	 0	 0	 0	 0	 0	 0	 0	 0	 0	 25.45;
	 102	 0	 0	 33.33	-33.33	 1	 100	 0	 54	 0.475	 0	 0	 0	 0	 0	 0	 0	 0	 0	 0	 298;
	 103	 0	 0	 87	-87	 1	 100	 0	 173	 0	 0	 0	 0	 0	 0	 0	 0	 0	 0	 0	 280;
	 103	 0	 0	 79	-79	 1	 100	 0	 158	 0.71	 0	 0	 0	 0	 0	 0	 0	 0	 0	 0	 26.25;
	 107	 0	 0	 32	-32	 1	 15	 0	 63	 5.7	 0	 0	 0	 0	 0	 0	 0	 0	 0	 0	 26.4;
	 107	 0	 0	 24	-24	 1	 15	 0	 47	 5.7	 0	 0	 0	 0	 0	 0	 0	 0	 0	 0	 26.4;
	 107	 0	 0	 41	-41	 1	 15	 0	 81	 5.7	 0	 0	 0	 0	 0	 0	 0	 0	 0	 0	 26.4;
	 107	 0	 0	 33.33	-33.33	 1	 100	 0	 35	 33.83	 0	 0	 0	 0	 0	 0	 0	 0	 0	 0	 82.662;
	 119	 90	 19.42	 134.59	-95.75	 1	 250	 1	 142	 38	 0	 0	 0	 0	 0	 0	 0	 0	 0	 0	 357;
	 123	 0	 0	 33.33	-33.33	 1	 100	 0	 3	 0	 0	 0	 0	 0	 0	 0	 0	 0	 0	 0	 277;
	 129	 16.9625	-0.8	 14	-15.6	 1	 100	 1	 27	 6.925	 0	 0	 0	 0	 0	 0	 0	 0	 0	 0	 38.341;
	 136	 0	 0	 92	-92	 1	 145	 0	 184	 56.525	 0	 0	 0	 0	 0	 0	 0	 0	 0	 0	 124.95;
	 159	 141.325	 0	 110	-110	 1	 151.1	 1	 219	 63.65	 0	 0	 0	 0	 0	 0	 0	 0	 0	 0	 186.462;
	 165	 292.0425	 18.73	 289.46	-252	 1	 385	 1	 503	 81.085	 0	 0	 0	 0	 0	 0	 0	 0	 0	 0	 687.75;
	 173	 0	 0	 29	-29	 1	 30	 0	 58	 6.175	 0	 0	 0	 0	 0	 0	 0	 0	 0	 0	 27.35;
	 174	 0	 0	 57	-57	 1	 100	 0	 113	 0	 0	 0	 0	 0	 0	 0	 0	 0	 0	 0	 252;
	 178	 0	 0	 56.67	-56.67	 1	 170	 0	 144.4	 21	 0	 0	 0	 0	 0	 0	 0	 0	 0	 0	 160.65;
	 187	 0	 0	 48.33	-48.33	 1	 145	 0	 115.9	 8	 0	 0	 0	 0	 0	 0	 0	 0	 0	 0	 128.1;
	 188	 0	 0	 33.33	-33.33	 1	 100	 0	 56	 37.315	 0	 0	 0	 0	 0	 0	 0	 0	 0	 0	 89.627;
	 228	 215	 0	 196	-196	 1	 250	 1	 392	 38	 0	 0	 0	 0	 0	 0	 0	 0	 0	 0	 357;
	 230	 0	 0	 86	-86	 1	 170	 0	 172	 72.2	 0	 0	 0	 0	 0	 0	 0	 0	 0	 0	 160.65;
	 240	 0	 0	 296	-296	 1	 370	 0	 591	 120	 0	 0	 0	 0	 0	 0	 0	 0	 0	 0	 370;
	 240	 0	 0	 123.33	-123.33	 1	 370	 0	 197	 120	 0	 0	 0	 0	 0	 0	 0	 0	 0	 0	 370;
	 240	 374	 0	 314	-314	 1	 449.45	 1	 628	 120	 0	 0	 0	 0	 0	 0	 0	 0	 0	 0	 431.25;
	 241	 255.5	 0	 196	-196	 1	 455.56	 1	 391	 120	 0	 0	 0	 0	 0	 0	 0	 0	 0	 0	 462.5;
	 241	 301	 0	 241	-241	 1	 397.31	 1	 482	 120	 0	 0	 0	 0	 0	 0	 0	 0	 0	 0	 370;
	 242	 509.5	 0	 450	-450	 1	 616.84	 1	 899	 120	 0	 0	 0	 0	 0	 0	 0	 0	 0	 0	 672.495;
	 242	 348.5	 0	 289	-289	 1	 616.84	 1	 577	 120	 0	 0	 0	 0	 0	 0	 0	 0	 0	 0	 672.495;
	 242	 398	 0	 338	-338	 1	 616.84	 1	 676	 120	 0	 0	 0	 0	 0	 0	 0	 0	 0	 0	 672.495;
	 243	 310	 0	 250	-250	 1	 451.84	 1	 500	 120	 0	 0	 0	 0	 0	 0	 0	 0	 0	 0	 462.5;
	 243	 272.5	 0	 213	-213	 1	 416.51	 1	 425	 120	 0	 0	 0	 0	 0	 0	 0	 0	 0	 0	 425;
	 243	 314.5	 0	 255	-255	 1	 416.51	 1	 509	 120	 0	 0	 0	 0	 0	 0	 0	 0	 0	 0	 425;
	 252	 0	 0	 55	-55	 1	 100	 0	 109	 70.975	 0	 0	 0	 0	 0	 0	 0	 0	 0	 0	 156.952;
	 255	 215.9175	 0	 193	-193	 1	 166.81	 1	 386	 45.835	 0	 0	 0	 0	 0	 0	 0	 0	 0	 0	 137.5;
	 255	 0	 0	 40	-40	 1	 120	 0	 100	 6	 0	 0	 0	 0	 0	 0	 0	 0	 0	 0	 120;
	 264	 262.5	-2.45	 237.5	-242.4	 1	 477.9	 1	 405	 120	 0	 0	 0	 0	 0	 0	 0	 0	 0	 0	 437.5;
	 268	 78.5	 5.5	 183	-172	 1	 30	 1	 157	 0	 0	 0	 0	 0	 0	 0	 0	 0	 0	 0	 30;
	 273	 65	 10.5	 187	-166	 1	 0.43	 1	 130	 0	 0	 0	 0	 0	 0	 0	 0	 0	 0	 0	 272;
];

mpc_regionR1.branch = [
%	fbus        tbus        r           x           b           rateA       rateB       rateC       ratio       angle       status      angmin      angmax      
	 1	 2	 0.00238	 0.01667	 0.02846	 341	 341	 341	 0	 0	 1	-30	 30;
	 2	 49	 0.0001	 0.01	 0	 403.75	 484.5	 605.63	 0	 0	 1	-30	 30;
	 3	 8	 0.00213	 0.02432	 0.67744	 1240	 1240	 1240	 0	 0	 1	-30	 30;
	 3	 14	 0.00293	 0.03054	 0.95472	 1206	 1206	 1206	 0	 0	 1	-30	 30;
	 3	 243	 0.0001	 0.01	 0	 306.13	 367.36	 459.19	 0	 0	 1	-30	 30;
	 4	 7	 0.00241	 0.02782	 0.77066	 1154	 1154	 1154	 0	 0	 1	-30	 30;
	 4	 252	 0.0001	 0.01	 0	 388.42	 466.1	 582.63	 0	 0	 1	-30	 30;
	 5	 6	 1e-05	 6e-05	 0	 1593	 1593	 1593	 0	 0	 1	-30	 30;
	 5	 8	 0.00092	 0.01051	 0.29293	 838	 838	 838	 0	 0	 1	-30	 30;
	 7	 8	 1e-05	 6e-05	 0	 1593	 1593	 1593	 0	 0	 1	-30	 30;
	 7	 15	 0.00168	 0.01603	 0.51488	 1206	 1206	 1206	 0	 0	 1	-30	 30;
	 9	 10	 0.00025	 0.00074	 0.0001	 75	 75	 75	 0	 0	 1	-30	 30;
	 10	 13	 0.00579	 0.01802	 0.00198	 115.85	 139.01	 173.77	 0	 0	 1	-30	 30;
	 11	 12	 8e-05	 0.00083	 0	 438	 438	 438	 0	 0	 1	-30	 30;
	 11	 267	 0.0001	 0.01	 0	 83.7	 98.6	 125.55	 0	 0	 1	-30	 30;
	 12	 129	 0.0001	 0.01	 0	 83.7	 98.6	 125.55	 0	 0	 1	-30	 30;
	 13	 274	 0.0001	 0.01	 0	 83.7	 98.6	 125.55	 0	 0	 1	-30	 30;
	 16	 145	 0.0234	 0.0348	 0.0011	 260	 312	 390	 0	 0	 1	-30	 30;
	 16	 201	 0.042	 0.08	 0	 260	 312	 390	 0	 0	 1	-30	 30;
	 17	 21	 0.0154	 0.0512	 0.001	 260	 312	 390	 0	 0	 1	-30	 30;
	 17	 26	 0.00154	 0.01	 0	 260	 312	 390	 0	 0	 1	-30	 30;
	 17	 143	 0.008	 0.0302	 0	 260	 312	 390	 0	 0	 1	-30	 30;
	 18	 157	 0.0004	 0.0026	 0.0033	 305	 365	 365	 0	 0	 1	-30	 30;
	 18	 163	 0.0025	 0.0161	 0.00164	 305	 365	 365	 0	 0	 1	-30	 30;
	 19	 73	 0.00036	 0.0282	 0	 543	 659	 659	 1	 0	 1	-30	 30;
	 19	 73	 0.0004	 0.0285	 0	 614	 698	 698	 1	 0	 1	-30	 30;
	 19	 135	 0.00066	 0.0069	 0.0632	 1481	 1704	 1704	 0	 0	 1	-30	 30;
	 19	 148	 0.00108	 0.01131	 0.20786	 1463	 1683	 1683	 0	 0	 1	-30	 30;
	 19	 253	 0.0001	 0.01	 0	 401.26	 481.52	 601.89	 0	 0	 1	-30	 30;
	 182	 20	 0.00018	 0.01287	 0	 1307.29	 1568.75	 1960.94	 1.0504	 0	 1	-30	 30;
	 21	 218	 0.00299	 0.0123	 0	 260	 312	 390	 0	 0	 1	-30	 30;
	 22	 37	 0.0013	 0.0085	 0.0002	 260	 312	 390	 0	 0	 1	-30	 30;
	 22	 192	 0.0091	 0.0421	 0.00107	 260	 312	 390	 0	 0	 1	-30	 30;
	 23	 130	 0.0088	 0.1958	 0	 260	 312	 390	 1.0362	 0	 1	-30	 30;
	 23	 194	 0.0154	 0.0814	 0.0016	 260	 312	 390	 0	 0	 1	-30	 30;
	 24	 141	 0.00446	 0.03228	 0.00898	 260	 308	 308	 0	 0	 1	-30	 30;
	 25	 55	 0.0179	 0.0511	 0.013	 174	 204	 204	 0	 0	 1	-30	 30;
	 93	 25	 0.00209	 0.10415	 0	 260	 312	 390	 1.0114	 0	 1	-30	 30;
	 25	 108	 0.00765	 0.05193	 0.0149	 311	 358	 358	 0	 0	 1	-30	 30;
	 25	 110	 0.0185	 0.0528	 0.013	 160	 179	 179	 0	 0	 1	-30	 30;
	 148	 25	 0.00054	 0.03721	 0	 444	 536	 536	 0.9913	 0	 1	-30	 30;
	 25	 153	 0.005	 0.0387	 0.0106	 286	 286	 286	 0	 0	 1	-30	 30;
	 25	 169	 0.0143	 0.0407	 0.0102	 174	 179	 179	 0	 0	 1	-30	 30;
	 25	 221	 0.02319	 0.06165	 0.0154	 170	 200	 200	 0	 0	 1	-30	 30;
	 26	 99	 0.0017	 0.0112	 0	 260	 312	 390	 0	 0	 1	-30	 30;
	 27	 29	 0.00209	 0.01358	 0.00204	 287	 287	 287	 0	 0	 1	-30	 30;
	 27	 114	 0.001	 0.0073	 0.00217	 287	 287	 287	 0	 0	 1	-30	 30;
	 28	 139	 0.0028	 0.0131	 0.00034	 260	 312	 390	 0	 0	 1	-30	 30;
	 29	 66	 0.0003	 0.002	 0.00061	 305	 365	 365	 0	 0	 1	-30	 30;
	 30	 56	 0.0357	 0.1551	 0.00369	 260	 312	 390	 0	 0	 1	-30	 30;
	 30	 75	 0.02564	 0.1306	 0.00266	 260	 312	 390	 0	 0	 1	-30	 30;
	 31	 201	 0.0145	 0.0284	 0.00052	 260	 312	 390	 0	 0	 1	-30	 30;
	 32	 134	 0.0049	 0.0241	 0	 260	 312	 390	 0	 0	 1	-30	 30;
	 32	 155	 0.0077	 0.043	 0.00073	 260	 312	 390	 0	 0	 1	-30	 30;
	 33	 150	 0.0019	 0.0138	 0.0042	 305	 333	 333	 0	 0	 1	-30	 30;
	 33	 153	 0.0006	 0.0044	 0.0014	 333	 396	 396	 0	 0	 1	-30	 30;
	 34	 87	 0.00152	 0.05542	 0	 260	 312	 390	 0.934	 0	 1	-30	 30;
	 34	 140	 0.0018	 0.0098	 0.00259	 264	 314	 314	 0	 0	 1	-30	 30;
	 34	 164	 0.0014	 0.008	 0.00214	 235	 280	 280	 0	 0	 1	-30	 30;
	 35	 87	 0.00326	 0.0211	 0	 260	 312	 390	 0	 0	 1	-30	 30;
	 35	 197	 0.001	 0.006	 0	 260	 312	 390	 0	 0	 1	-30	 30;
	 36	 44	 0.0007	 0.0033	 0	 260	 312	 390	 0	 0	 1	-30	 30;
	 36	 155	 0.0079	 0.0441	 0.00075	 260	 312	 390	 0	 0	 1	-30	 30;
	 121	 38	 0.0029	 0.1005	 0	 260	 312	 390	 1	 0	 1	-30	 30;
	 121	 38	 0.0027	 0.1007	 0	 260	 312	 390	 1	 0	 1	-30	 30;
	 121	 38	 0.0027	 0.1003	 0	 260	 312	 390	 1	 0	 1	-30	 30;
	 39	 108	 0.00028	 0.00192	 0.00055	 314	 375	 375	 0	 0	 1	-30	 30;
	 39	 131	 0.00161	 0.01082	 0.00317	 314	 375	 375	 0	 0	 1	-30	 30;
	 40	 147	 0.0066	 0.0344	 0	 260	 312	 390	 0	 0	 1	-30	 30;
	 40	 183	 0.00276	 0.01286	 0	 260	 312	 390	 0	 0	 1	-30	 30;
	 41	 81	 0.0044	 0.02095	 0.00566	 260	 308	 308	 0	 0	 1	-30	 30;
	 41	 211	 0.00032	 0.00149	 0.00024	 260	 308	 308	 0	 0	 1	-30	 30;
	 42	 171	 0.0025	 0.0181	 0.00544	 311	 339	 339	 0	 0	 1	-30	 30;
	 42	 177	 0.0015	 0.0106	 0.0032	 305	 365	 365	 0	 0	 1	-30	 30;
	 42	 189	 0.0011	 0.0078	 0.0023	 277	 318	 318	 0	 0	 1	-30	 30;
	 173	 43	 0.0025	 0.0811	 0	 260	 312	 390	 1	 0	 1	-30	 30;
	 44	 143	 0.0021	 0.103	 0	 260	 312	 390	 0	 0	 1	-30	 30;
	 188	 45	 0.00423	 0.08363	 0	 260	 312	 390	 1	 0	 1	-30	 30;
	 188	 46	 0.00423	 0.08363	 0	 260	 312	 390	 0.9759	 0	 1	-30	 30;
	 47	 48	 0.003	 0.0128	 0.00011	 260	 312	 390	 0	 0	 1	-30	 30;
	 47	 101	 0.0054	 0.2128	 0	 260	 312	 390	 1.0301	 0	 1	-30	 30;
	 47	 179	 0.0186	 0.0857	 0.00204	 260	 312	 390	 0	 0	 1	-30	 30;
	 47	 225	 0.0028	 0.0121	 0.00031	 260	 312	 390	 0	 0	 1	-30	 30;
	 48	 56	 0.0213	 0.0927	 0.0008	 260	 312	 390	 0	 0	 1	-30	 30;
	 49	 173	 0.0004	 0.0296	 0	 605	 697	 697	 1	 0	 1	-30	 30;
	 49	 173	 0.00035	 0.0285	 0	 612	 692	 692	 1.0261	 0	 1	-30	 30;
	 49	 182	 0.0008	 0.0099	 0.16879	 1620	 1937	 1937	 0	 0	 1	-30	 30;
	 50	 173	 0.0017	 0.012	 0.00368	 243	 288	 288	 0	 0	 1	-30	 30;
	 191	 50	 0.0014	 0.0511	 0	 221	 257	 257	 1.0351	 0	 1	-30	 30;
	 51	 52	 0.0046	 0.0201	 0	 260	 312	 390	 0	 0	 1	-30	 30;
	 51	 52	 0.0008	 0.0036	 0	 260	 312	 390	 0	 0	 1	-30	 30;
	 51	 196	 0.0013	 0.0059	 0.0004	 260	 312	 390	 0	 0	 1	-30	 30;
	 51	 222	 0.00098	 0.00414	 0	 260	 312	 390	 0	 0	 1	-30	 30;
	 52	 138	 0.00244	 0.00579	 0	 260	 312	 390	 0	 0	 1	-30	 30;
	 53	 72	 0.0019	 0.00865	 0.00053	 236	 281	 281	 0	 0	 1	-30	 30;
	 53	 107	 0.0001	 0.001	 0	 236	 275	 275	 0	 0	 1	-30	 30;
	 54	 185	 0.0195	 0.0546	 0.0013	 260	 312	 390	 0	 0	 1	-30	 30;
	 55	 107	 0.0308	 0.0878	 0.0216	 163	 185	 185	 0	 0	 1	-30	 30;
	 55	 208	 0.0073	 0.0207	 0.00508	 170	 200	 200	 0	 0	 1	-30	 30;
	 57	 62	 0.0024	 0.0069	 0.00012	 260	 312	 390	 0	 0	 1	-30	 30;
	 58	 77	 0.0014	 0.0103	 0.00307	 260	 312	 390	 0	 0	 1	-30	 30;
	 58	 146	 0.0014	 0.0102	 0.00307	 260	 312	 390	 0	 0	 1	-30	 30;
	 59	 85	 0.00014	 0.001	 0.00024	 237	 272	 272	 0	 0	 1	-30	 30;
	 59	 88	 0.01128	 0.05119	 0.0145	 236	 275	 275	 0	 0	 1	-30	 30;
	 60	 68	 0.0001	 0.001	 0	 311	 358	 358	 0	 0	 1	-30	 30;
	 60	 82	 0.01082	 0.07034	 0.02128	 287	 342	 342	 0	 0	 1	-30	 30;
	 60	 141	 0.0123	 0.0922	 0.0246	 170	 200	 200	 0	 0	 1	-30	 30;
	 60	 156	 0.0001	 0.001	 0	 311	 358	 358	 0	 0	 1	-30	 30;
	 60	 158	 0.0042	 0.1006	 0	 260	 312	 390	 1	 0	 1	-30	 30;
	 60	 181	 0.0001	 0.001	 0	 585	 673	 673	 0	 0	 1	-30	 30;
	 60	 203	 0.0068	 0.0199	 0.0056	 258	 295	 295	 0	 0	 1	-30	 30;
	 60	 219	 0.0047	 0.0346	 0.0098	 258	 295	 295	 0	 0	 1	-30	 30;
	 61	 64	 0.0028	 0.0115	 0.00301	 305	 358	 358	 0	 0	 1	-30	 30;
	 61	 164	 0.00094	 0.00436	 0.00061	 260	 308	 308	 0	 0	 1	-30	 30;
	 61	 173	 0.009	 0.0434	 0.0116	 305	 342	 342	 0	 0	 1	-30	 30;
	 62	 115	 0.0039	 0.01867	 0	 260	 312	 390	 0	 0	 1	-30	 30;
	 63	 172	 0.0066	 0.0169	 0.0004	 260	 312	 390	 0	 0	 1	-30	 30;
	 63	 191	 0.0021	 0.0054	 0.00119	 260	 312	 390	 0	 0	 1	-30	 30;
	 65	 171	 0.0001	 0.001	 0	 311	 325	 325	 0	 0	 1	-30	 30;
	 65	 220	 0.0024	 0.0167	 0.0044	 333	 396	 396	 0	 0	 1	-30	 30;
	 66	 73	 0.0032	 0.0241	 0.00665	 333	 382	 382	 0	 0	 1	-30	 30;
	 67	 89	 0.0001	 0.001	 0.00024	 260	 312	 390	 0	 0	 1	-30	 30;
	 67	 215	 0.0169	 0.0654	 0.0018	 260	 312	 390	 0	 0	 1	-30	 30;
	 68	 228	 0.0012	 0.0784	 0	 250	 275	 275	 1	 0	 1	-30	 30;
	 69	 92	 0.0033	 0.0239	 0.00053	 260	 312	 390	 0	 0	 1	-30	 30;
	 69	 124	 0.00678	 0.04924	 0.00108	 260	 312	 390	 0	 0	 1	-30	 30;
	 70	 155	 0.0226	 0.104	 0.0024	 260	 312	 390	 0	 0	 1	-30	 30;
	 70	 166	 0.0076	 0.0264	 0.0007	 260	 312	 390	 0	 0	 1	-30	 30;
	 71	 135	 0.00112	 0.01169	 0.21474	 1274	 1419	 1419	 0	 0	 1	-30	 30;
	 71	 188	 0.00044	 0.00456	 0.08371	 1664	 1981	 1981	 0	 0	 1	-30	 30;
	 71	 221	 0.00066	 0.03538	 0	 415	 462	 462	 1	 0	 1	-30	 30;
	 72	 202	 0.0008	 0.0034	 0.0011	 236	 281	 281	 0	 0	 1	-30	 30;
	 73	 88	 0.01171	 0.06634	 0.02103	 287	 287	 287	 0	 0	 1	-30	 30;
	 73	 113	 0.0001	 0.001	 0	 170	 200	 200	 0	 0	 1	-30	 30;
	 73	 200	 0.0011	 0.0082	 0.00227	 305	 365	 365	 0	 0	 1	-30	 30;
	 107	 74	 0.03419	 0.47677	 0	 260	 312	 390	 1	 0	 1	-30	 30;
	 76	 180	 0.00207	 0.00652	 9e-05	 260	 312	 390	 0	 0	 1	-30	 30;
	 77	 80	 0.00144	 0.00933	 0.0014	 311	 358	 358	 0	 0	 1	-30	 30;
	 78	 120	 0.01	 0.0333	 0.0268	 284	 327	 327	 0	 0	 1	-30	 30;
	 78	 132	 0.00281	 0.00756	 0.00186	 66	 66	 66	 0	 0	 1	-30	 30;
	 78	 223	 0.0001	 0.001	 0	 216	 255	 255	 0	 0	 1	-30	 30;
	 79	 128	 0.0181	 0.0455	 0	 260	 312	 390	 0	 0	 1	-30	 30;
	 79	 214	 0.01822	 0.0965	 0.00213	 260	 312	 390	 0	 0	 1	-30	 30;
	 135	 80	 0.00052	 0.03715	 0	 373	 426	 426	 0.9857	 0	 1	-30	 30;
	 80	 144	 0.0032	 0.02084	 0.00315	 311	 358	 358	 0	 0	 1	-30	 30;
	 138	 81	 0.00283	 0.1015	 0	 260	 312	 390	 1.0435	 0	 1	-30	 30;
	 81	 173	 0.00162	 0.00959	 0.00269	 260	 308	 308	 0	 0	 1	-30	 30;
	 81	 173	 0.00212	 0.00978	 0.00267	 260	 308	 308	 0	 0	 1	-30	 30;
	 205	 81	 0.00285	 0.10145	 0	 260	 312	 390	 1.0435	 0	 1	-30	 30;
	 222	 81	 0.00287	 0.10115	 0	 260	 312	 390	 1.0435	 0	 1	-30	 30;
	 82	 86	 0.00257	 0.01865	 0.00022	 287	 342	 342	 0	 0	 1	-30	 30;
	 83	 87	 0.0072	 0.0406	 0.0008	 260	 312	 390	 0	 0	 1	-30	 30;
	 84	 208	 0.00238	 0.11939	 0	 260	 312	 390	 0.9257	 0	 1	-30	 30;
	 84	 227	 0.02263	 0.09324	 0.00128	 260	 312	 390	 0	 0	 1	-30	 30;
	 85	 101	 0.01562	 0.07089	 0.02004	 236	 272	 272	 0	 0	 1	-30	 30;
	 85	 175	 0.0036	 0.1256	 0	 260	 312	 390	 1.0145	 0	 1	-30	 30;
	 86	 141	 0.0001	 0.001	 0	 200	 238	 238	 0	 0	 1	-30	 30;
	 87	 151	 0.0041	 0.0228	 0.00045	 260	 312	 390	 0	 0	 1	-30	 30;
	 89	 191	 0.0043	 0.013	 0.00029	 260	 312	 390	 0	 0	 1	-30	 30;
	 107	 90	 0.00303	 0.09175	 0	 260	 312	 390	 1.0684	 0	 1	-30	 30;
	 91	 164	 0.00094	 0.00439	 0.00119	 260	 308	 308	 0	 0	 1	-30	 30;
	 91	 211	 0.00228	 0.01065	 0.00288	 260	 308	 308	 0	 0	 1	-30	 30;
	 92	 142	 0.0054	 0.0401	 0	 260	 312	 390	 0	 0	 1	-30	 30;
	 93	 94	 0.013	 0.0976	 0.00754	 260	 312	 390	 0	 0	 1	-30	 30;
	 93	 145	 0.00757	 0.01128	 0.0015	 260	 312	 390	 0	 0	 1	-30	 30;
	 94	 162	 0.004	 0.0305	 0.00472	 260	 312	 390	 0	 0	 1	-30	 30;
	 95	 149	 0.0023	 0.0062	 0	 260	 312	 390	 0	 0	 1	-30	 30;
	 95	 174	 0.005	 0.0207	 0	 260	 312	 390	 0	 0	 1	-30	 30;
	 96	 106	 0.0004	 0.0026	 0.00079	 305	 365	 365	 0	 0	 1	-30	 30;
	 96	 229	 0.0005	 0.0035	 0.00098	 305	 358	 358	 0	 0	 1	-30	 30;
	 97	 207	 0.0286	 0.0702	 0	 260	 312	 390	 0	 0	 1	-30	 30;
	 97	 212	 0.0286	 0.0702	 0.00235	 260	 312	 390	 0	 0	 1	-30	 30;
	 98	 112	 0.0112	 0.0294	 0	 260	 312	 390	 0	 0	 1	-30	 30;
	 219	 98	 0.00317	 0.12018	 0	 260	 312	 390	 0.9857	 0	 1	-30	 30;
	 99	 197	 0.0047	 0.0305	 0	 260	 312	 390	 0	 0	 1	-30	 30;
	 100	 107	 0.0021	 0.0103	 0.00259	 229	 229	 229	 0	 0	 1	-30	 30;
	 101	 133	 0.0082	 0.0233	 0.00574	 174	 204	 204	 0	 0	 1	-30	 30;
	 102	 120	 0.01299	 0.30119	 0	 260	 312	 390	 1.03	 0	 1	-30	 30;
	 102	 120	 0.01526	 0.2942	 0	 260	 312	 390	 1.03	 0	 1	-30	 30;
	 102	 120	 0.01426	 0.30473	 0	 260	 312	 390	 1.007	 0	 1	-30	 30;
	 103	 149	 0.0022	 0.0069	 0	 260	 312	 390	 0	 0	 1	-30	 30;
	 103	 168	 0.0025	 0.0124	 0	 260	 312	 390	 0	 0	 1	-30	 30;
	 104	 111	 0.0305	 0.0781	 0.0015	 260	 312	 390	 0	 0	 1	-30	 30;
	 104	 175	 0.0305	 0.0781	 0.0015	 260	 312	 390	 0	 0	 1	-30	 30;
	 105	 106	 0.0004	 0.0024	 0.00067	 305	 365	 365	 0	 0	 1	-30	 30;
	 105	 170	 0.0004	 0.0024	 0.00067	 305	 365	 365	 0	 0	 1	-30	 30;
	 107	 122	 0.0127	 0.27796	 0	 260	 312	 390	 1	 0	 1	-30	 30;
	 107	 125	 0.0021	 0.0103	 0.00259	 229	 229	 229	 0	 0	 1	-30	 30;
	 107	 136	 0.00303	 0.09175	 0	 260	 312	 390	 1.0684	 0	 1	-30	 30;
	 107	 176	 0.0025	 0.0129	 0.0036	 236	 275	 275	 0	 0	 1	-30	 30;
	 107	 187	 0.00303	 0.09175	 0	 260	 312	 390	 1.0684	 0	 1	-30	 30;
	 107	 206	 0.0143	 0.0408	 0.01004	 163	 185	 185	 0	 0	 1	-30	 30;
	 107	 281	 0.0001	 0.01	 0	 217.67	 261.21	 326.51	 0	 0	 1	-30	 30;
	 109	 137	 0.00029	 0.00217	 0.00073	 305	 365	 365	 0	 0	 1	-30	 30;
	 109	 150	 0.00204	 0.01328	 0.00401	 305	 358	 358	 0	 0	 1	-30	 30;
	 109	 221	 0.00243	 0.01637	 0.00474	 260	 312	 390	 0	 0	 1	-30	 30;
	 110	 141	 0.0167	 0.0476	 0.0117	 174	 204	 204	 0	 0	 1	-30	 30;
	 110	 154	 0.0027	 0.0196	 0.00588	 143	 143	 143	 0	 0	 1	-30	 30;
	 111	 185	 0.0305	 0.0781	 0.0015	 260	 312	 390	 0	 0	 1	-30	 30;
	 112	 194	 0.0113	 0.052	 0.0011	 260	 312	 390	 0	 0	 1	-30	 30;
...
];

mpc_regionR1.gencost = [
%	2           startup     shutdown    n           c(n-1)...c0 
	 2	 0	 0	 3	 0	 31.299095	 0;
	 2	 0	 0	 3	 0	 41.863435	 0;
	 2	 0	 0	 3	 0	 40.163161	 0;
	 2	 0	 0	 3	 0	 30.183347	 0;
	 2	 0	 0	 3	 0	 18.729143	 0;
	 2	 0	 0	 3	 0	 39.944342	 0;
	 2	 0	 0	 3	 0	 46.566996	 0;
	 2	 0	 0	 3	 0	 32.811921	 0;
	 2	 0	 0	 3	 0	 6.453343	 0;
	 2	 0	 0	 3	 0	 21.986155	 0;
	 2	 0	 0	 3	 0	 45.62655	 0;
	 2	 0	 0	 3	 0	 9.00763	 0;
	 2	 0	 0	 3	 0	 33.507824	 0;
	 2	 0	 0	 3	 0	 56.129816	 0;
	 2	 0	 0	 3	 0	 44.517207	 0;
	 2	 0	 0	 3	 0	 22.962463	 0;
	 2	 0	 0	 3	 0	 29.17239	 0;
	 2	 0	 0	 3	 0	 104.857265	 0;
	 2	 0	 0	 3	 0	 15.590039	 0;
	 2	 0	 0	 3	 0	 41.488656	 0;
	 2	 0	 0	 3	 0	 102.981855	 0;
	 2	 0	 0	 3	 0	 34.55596	 0;
	 2	 0	 0	 3	 0	 110.893254	 0;
	 2	 0	 0	 3	 0	 131.653238	 0;
	 2	 0	 0	 3	 0	 38.675099	 0;
	 2	 0	 0	 3	 0	 31.437431	 0;
	 2	 0	 0	 3	 0	 50.813485	 0;
	 2	 0	 0	 3	 0	 22.665465	 0;
	 2	 0	 0	 3	 0	 43.437129	 0;
	 2	 0	 0	 3	 0	 10.734329	 0;
	 2	 0	 0	 3	 0	 13.519044	 0;
	 2	 0	 0	 3	 0	 38.363762	 0;
	 2	 0	 0	 3	 0	 15.841487	 0;
	 2	 0	 0	 3	 0	 29.069235	 0;
	 2	 0	 0	 3	 0	 46.553698	 0;
	 2	 0	 0	 3	 0	 48.035202	 0;
	 2	 0	 0	 3	 0	 21.787219	 0;
	 2	 0	 0	 3	 0	 54.471194	 0;
	 2	 0	 0	 3	 0	 28.789347	 0;
	 2	 0	 0	 3	 0	 21.651541	 0;
	 2	 0	 0	 3	 0	 42.348339	 0;
	 2	 0	 0	 3	 0	 16.237578	 0;
	 2	 0	 0	 3	 0	 22.834451	 0;
	 2	 0	 0	 3	 0	 33.986608	 0;
	 2	 0	 0	 3	 0	 19.659644	 0;
	 2	 0	 0	 3	 0	 24.487793	 0;
	 2	 0	 0	 3	 0	 25.099273	 0;
	 2	 0	 0	 3	 0	 17.449447	 0;
	 2	 0	 0	 3	 0	 15.643667	 0;
	 2	 0	 0	 3	 0	 31.682389	 0;
	 2	 0	 0	 3	 0	 59.199737	 0;
	 2	 0	 0	 3	 0	 37.830316	 0;
	 2	 0	 0	 3	 0	 39.9877	 0;
	 2	 0	 0	 3	 0	 38.426179	 0;
	 2	 0	 0	 3	 0	 35.222275	 0;
];


% -------------------- mpc_regionR2 --------------------

mpc_regionR2.version = '2';
mpc_regionR2.baseMVA = 100.0000;
mpc_regionR2.bus = [
%	bus_i       type        Pd          Qd          Gs          Bs          area        Vm          Va          baseKV      zone        Vmax        Vmin        
	 1	 1	 0	 0	 0	 0	 1	 1	 0	 345	 1	 1.1	 0.9;
	 2	 1	 0	 0	 0	-7.13	 1	 1	 0	 345	 1	 1.1	 0.9;
	 3	 1	 3.53	 1.91	 0	 0	 1	 1	 0	 345	 1	 1.1	 0.9;
	 4	 1	 0	 0	 0	-9.6	 1	 1	 0	 345	 1	 1.1	 0.9;
	 5	 1	 0	 0	 0	 0	 1	 1	 0	 345	 1	 1.1	 0.9;
	 6	 1	 0	 0	 0	 41.99	 1	 1	 0	 345	 1	 1.1	 0.9;
	 7	 1	 0	 0	 0	 0	 1	 1	 0	 345	 1	 1.1	 0.9;
	 8	 1	 0	 0	 0	 0	 1	 1	 0	 345	 1	 1.1	 0.9;
	 9	 2	 221.28	-103.64	 0	 0	 1	 1	 0	 345	 1	 1.1	 0.9;
	 10	 2	 52.68	 73.01	 0	-0.23	 1	 1	 0	 345	 1	 1.1	 0.9;
	 11	 2	 15.87	 7.51	 0	-0.24	 1	 1	 0	 138	 1	 1.1	 0.9;
	 12	 2	 26.63	 10.69	 0	-0.53	 1	 1	 0	 138	 1	 1.1	 0.9;
	 13	 1	 8.03	 2.49	 0	 0	 1	 1	 0	 138	 1	 1.1	 0.9;
	 14	 1	 25.94	 7.84	 0	 0	 1	 1	 0	 138	 1	 1.1	 0.9;
	 15	 1	 0.55	 0.1	 0	 0	 1	 1	 0	 138	 1	 1.1	 0.9;
	 16	 1	 0	 0	 0	 0	 1	 1	 0	 138	 1	 1.1	 0.9;
	 17	 1	 13.55	 4.62	 0	 0	 1	 1	 0	 138	 1	 1.1	 0.9;
	 18	 1	 3.12	 0.8	 0	 0	 1	 1	 0	 138	 1	 1.1	 0.9;
	 19	 1	 1.9	 0.5	 0	 0	 1	 1	 0	 138	 1	 1.1	 0.9;
	 20	 2	 20.54	-35.59	 0	 0	 1	 1	 0	 138	 1	 1.1	 0.9;
	 21	 1	 18.49	 3.1	 0	 0	 1	 1	 0	 138	 1	 1.1	 0.9;
	 22	 1	 0	 0	 0	 0	 1	 1	 0	 138	 1	 1.1	 0.9;
	 23	 1	 42.51	-12.87	 0	 0	 1	 1	 0	 138	 1	 1.1	 0.9;
	 24	 2	 10.84	 5.02	 0	 0	 1	 1	 0	 138	 1	 1.1	 0.9;
	 25	 2	 0	-0.4	 0	 0	 1	 1	 0	 138	 1	 1.1	 0.9;
	 26	 2	 44.93	 12.61	 0	-0.32	 1	 1	 0	 138	 1	 1.1	 0.9;
	 27	 1	 5.7	 1.5	 0	 0	 1	 1	 0	 138	 1	 1.1	 0.9;
	 28	 1	 0	 0	 0	 0	 1	 1	 0	 138	 1	 1.1	 0.9;
	 29	 1	 12.07	 3.71	 0	 0	 1	 1	 0	 138	 1	 1.1	 0.9;
	 30	 1	 0	 0	 0	 0	 1	 1	 0	 138	 1	 1.1	 0.9;
	 31	 1	 6.23	 1.71	 0	 0	 1	 1	 0	 138	 1	 1.1	 0.9;
	 32	 2	 8.95	 3.51	 0	-1.31	 1	 1	 0	 138	 1	 1.1	 0.9;
	 33	 1	 8.95	 4.62	 0	 0	 1	 1	 0	 138	 1	 1.1	 0.9;
	 34	 1	 0	 0	 0	 0	 1	 1	 0	 138	 1	 1.1	 0.9;
	 35	 1	 2.03	 0.5	 0	 0	 1	 1	 0	 138	 1	 1.1	 0.9;
	 36	 1	 0	 0	 0	 0	 1	 1	 0	 138	 1	 1.1	 0.9;
	 37	 1	 0	 0	 0	 0	 1	 1	 0	 138	 1	 1.1	 0.9;
	 38	 1	 0	 0	 0	 0	 1	 1	 0	 138	 1	 1.1	 0.9;
	 39	 1	 5.98	 0.48	 0	-0.49	 1	 1	 0	 138	 1	 1.1	 0.9;
	 40	 1	 0	 0	 0	 0	 1	 1	 0	 138	 1	 1.1	 0.9;
	 41	 1	 2.17	 0.6	 0	 0	 1	 1	 0	 138	 1	 1.1	 0.9;
	 42	 1	 7.73	 0.9	 0	 0	 1	 1	 0	 138	 1	 1.1	 0.9;
	 43	 1	 0	 0	 0	 3.71	 1	 1	 0	 138	 1	 1.1	 0.9;
	 44	 1	 20.11	 8.31	 0	 0	 1	 1	 0	 138	 1	 1.1	 0.9;
	 45	 1	 6.28	 2.28	 0	 0	 1	 1	 0	 138	 1	 1.1	 0.9;
	 46	 2	 47.19	 15.6	 0	-0.35	 1	 1	 0	 138	 1	 1.1	 0.9;
	 47	 1	 14.86	 4.19	 0	 0	 1	 1	 0	 138	 1	 1.1	 0.9;
	 48	 1	 0	 0.15	 0	 0	 1	 1	 0	 138	 1	 1.1	 0.9;
	 49	 1	 22.74	 4.21	 0	-4.15	 1	 1	 0	 138	 1	 1.1	 0.9;
	 50	 1	 0	 0	 0	 0	 1	 1	 0	 138	 1	 1.1	 0.9;
	 51	 1	 0	 0	 0	 0	 1	 1	 0	 138	 1	 1.1	 0.9;
	 52	 1	 23.59	 5.92	 0	 0	 1	 1	 0	 138	 1	 1.1	 0.9;
	 53	 2	 10.05	 3.22	 0	-61.98	 1	 1	 0	 138	 1	 1.1	 0.9;
	 54	 1	 4.89	 2.11	 0	 0	 1	 1	 0	 138	 1	 1.1	 0.9;
	 55	 1	 0.32	 0	 0	 0	 1	 1	 0	 138	 1	 1.1	 0.9;
	 56	 1	 8.97	 2.62	 0	 0	 1	 1	 0	 138	 1	 1.1	 0.9;
	 57	 1	 5.29	 1.49	 0	 0	 1	 1	 0	 138	 1	 1.1	 0.9;
	 58	 1	 49.85	-5.88	 0	 0	 1	 1	 0	 138	 1	 1.1	 0.9;
	 59	 1	 8.41	 2.23	 0	 0	 1	 1	 0	 138	 1	 1.1	 0.9;
	 60	 1	 1.9	 0.4	 0	 0	 1	 1	 0	 138	 1	 1.1	 0.9;
	 61	 1	 11.39	 24.27	 0	 0	 1	 1	 0	 138	 1	 1.1	 0.9;
	 62	 1	 0	 0	 0	 0	 1	 1	 0	 138	 1	 1.1	 0.9;
	 63	 1	 5.96	 1.55	 0	 0	 1	 1	 0	 138	 1	 1.1	 0.9;
	 64	 1	 2.98	 0.8	 0	 0	 1	 1	 0	 138	 1	 1.1	 0.9;
	 65	 1	 2.72	 0.7	 0	 0	 1	 1	 0	 138	 1	 1.1	 0.9;
	 66	 1	 9.38	 2.73	 0	 0	 1	 1	 0	 138	 1	 1.1	 0.9;
	 67	 2	 12.24	 3.73	 0	 3.71	 1	 1	 0	 138	 1	 1.1	 0.9;
	 68	 2	 21.82	 33.81	 0	 0	 1	 1	 0	 138	 1	 1.1	 0.9;
	 69	 1	 0	 0	 0	-0.29	 1	 1	 0	 138	 1	 1.1	 0.9;
	 70	 1	 31.72	 7	 0	 0	 1	 1	 0	 138	 1	 1.1	 0.9;
	 71	 2	 0	 0	 0	 0	 4	 1	 0	 345	 4	 1.1	 0.9;
	 72	 1	 16.98	 129.99	 0	 0	 4	 1	 0	 345	 4	 1.1	 0.9;
	 73	 1	 0	 0	 0	 0	 4	 1	 0	 345	 4	 1.1	 0.9;
	 74	 1	 0	 0	 0	 13.92	 4	 1	 0	 345	 4	 1.1	 0.9;
	 75	 1	 124.29	 60.58	 0	 0	 4	 1	 0	 345	 4	 1.1	 0.9;
	 76	 2	 12.69	 44	 0	 0	 4	 1	 0	 345	 4	 1.1	 0.9;
	 77	 2	 12.69	 44	 0	 0	 4	 1	 0	 345	 4	 1.1	 0.9;
	 78	 2	 23.09	 37.21	 0	-110.36	 4	 1	 0	 345	 4	 1.1	 0.9;
	 79	 2	 0	-0.79	 0	 0	 4	 1	 0	 345	 4	 1.1	 0.9;
	 80	 2	 0	-0.79	 0	 0	 4	 1	 0	 345	 4	 1.1	 0.9;
	 81	 1	 4.61	 1.3	 0	 0	 4	 1	 0	 138	 4	 1.1	 0.9;
	 82	 1	 0	 0	 0	 0	 4	 1	 0	 138	 4	 1.1	 0.9;
	 83	 1	 29.4	-9.75	 0	 0	 4	 1	 0	 138	 4	 1.1	 0.9;
	 84	 1	 0	 0	 0	 4.35	 4	 1	 0	 138	 4	 1.1	 0.9;
	 85	 1	 13.55	 4.62	 0	 0	 4	 1	 0	 138	 4	 1.1	 0.9;
	 86	 1	 6.92	 4.11	 0	 0	 4	 1	 0	 138	 4	 1.1	 0.9;
	 87	 2	 81.92	 15.85	 0	-0.25	 4	 1	 0	 138	 4	 1.1	 0.9;
	 88	 2	 1.6	-0.54	 0	-0.25	 4	 1	 0	 138	 4	 1.1	 0.9;
	 89	 1	 0	 0	 0	 0	 4	 1	 0	 138	 4	 1.1	 0.9;
	 90	 1	 72.33	 19.3	 0	 0	 4	 1	 0	 138	 4	 1.1	 0.9;
	 91	 1	 0	 0	 0	 0	 4	 1	 0	 138	 4	 1.1	 0.9;
	 92	 1	 0	 0	 0	 0	 4	 1	 0	 138	 4	 1.1	 0.9;
	 93	 1	 49.11	 7.98	 0	 0	 4	 1	 0	 138	 4	 1.1	 0.9;
	 94	 1	 1.5	 0.2	 0	 0	 4	 1	 0	 138	 4	 1.1	 0.9;
	 95	 1	 18.85	-9.82	 0	 0	 4	 1	 0	 138	 4	 1.1	 0.9;
	 96	 1	 5.7	 1.5	 0	 0	 4	 1	 0	 138	 4	 1.1	 0.9;
	 97	 2	 0	 0	 0	-10.36	 4	 1	 0	 138	 4	 1.1	 0.9;
	 98	 2	 12.69	 44	 0	-0.29	 4	 1	 0	 138	 4	 1.1	 0.9;
	 99	 1	 12.07	 3.71	 0	 0	 4	 1	 0	 138	 4	 1.1	 0.9;
	 100	 2	 0	 0	 0	 0	 4	 1	 0	 138	 4	 1.1	 0.9;
	 101	 1	 7.6	 2.04	 0	 0	 4	 1	 0	 138	 4	 1.1	 0.9;
	 102	 1	 0	 0	 0	 0	 4	 1	 0	 138	 4	 1.1	 0.9;
	 103	 1	 9.49	 4.01	 0	 0	 4	 1	 0	 138	 4	 1.1	 0.9;
	 104	 2	 24.74	 48	 0	-0.29	 4	 1	 0	 138	 4	 1.1	 0.9;
	 105	 1	 14.02	 4.3	 0	 6.24	 4	 1	 0	 138	 4	 1.1	 0.9;
	 106	 1	 61.19	-9.58	 0	 0	 4	 1	 0	 138	 4	 1.1	 0.9;
	 107	 1	 8.03	 2.49	 0	 7.31	 4	 1	 0	 138	 4	 1.1	 0.9;
	 108	 1	 3.12	 0.92	 0	 0	 4	 1	 0	 138	 4	 1.1	 0.9;
	 109	 1	 1.62	 0.3	 0	 0	 4	 1	 0	 138	 4	 1.1	 0.9;
	 110	 1	 0	 0	 0	 0	 4	 1	 0	 138	 4	 1.1	 0.9;
	 111	 1	 8.15	 2.28	 0	 0	 4	 1	 0	 138	 4	 1.1	 0.9;
	 112	 1	 15.63	 4.77	 0	 0	 4	 1	 0	 138	 4	 1.1	 0.9;
	 113	 1	 4.47	 1.1	 0	 0	 4	 1	 0	 138	 4	 1.1	 0.9;
	 114	 1	 0	 0	 0	 0	 4	 1	 0	 138	 4	 1.1	 0.9;
	 115	 1	 2.84	 0.7	 0	 0	 4	 1	 0	 138	 4	 1.1	 0.9;
	 116	 1	 0	 0	 0	 0	 4	 1	 0	 138	 4	 1.1	 0.9;
	 117	 1	 6.37	 1.76	 0	 0	 4	 1	 0	 138	 4	 1.1	 0.9;
	 118	 1	 7.04	 1.91	 0	 0	 4	 1	 0	 138	 4	 1.1	 0.9;
	 119	 1	 0	 0	 0	 0	 4	 1	 0	 138	 4	 1.1	 0.9;
	 120	 1	 23.7	 10.15	 0	 0	 4	 1	 0	 138	 4	 1.1	 0.9;
	 121	 1	 4.75	-0.52	 0	 0	 4	 1	 0	 138	 4	 1.1	 0.9;
	 122	 1	 5.15	 1.3	 0	 0	 4	 1	 0	 138	 4	 1.1	 0.9;
	 123	 1	 3.79	 0.9	 0	 5.93	 4	 1	 0	 138	 4	 1.1	 0.9;
	 124	 1	 0	 0	 0	 0	 4	 1	 0	 138	 4	 1.1	 0.9;
	 125	 1	 0	 0	 0	 0	 4	 1	 0	 138	 4	 1.1	 0.9;
	 126	 2	 406	 0	 0	 0	 4	 1	 0	 345	 4	 1.1	 0.9;
	 127	 2	 0	 0	 0	 0	 9	 1	 0	 345	 9	 1.1	 0.9;
	 128	 1	 0.53	-0.4	 0	 0	 9	 1	 0	 138	 9	 1.1	 0.9;
	 129	 2	 5.3	 3.46	 0	 0	 9	 1	 0	 138	 9	 1.1	 0.9;
	 130	 1	 9.5	 4.58	 0	 0	 9	 1	 0	 138	 9	 1.1	 0.9;
	 131	 1	 11.13	 2.66	 0	 0	 9	 1	 0	 138	 9	 1.1	 0.9;
	 132	 1	 5.96	 1.87	 0	 0	 9	 1	 0	 138	 9	 1.1	 0.9;
	 133	 1	 5.65	 1.77	 0	 0	 9	 1	 0	 138	 9	 1.1	 0.9;
	 134	 1	 7.42	 2.2	 0	 0	 9	 1	 0	 138	 9	 1.1	 0.9;
	 135	 1	 0	 0	 0	 0	 9	 1	 0	 138	 9	 1.1	 0.9;
	 136	 1	 4.97	 2.62	 0	 0	 9	 1	 0	 138	 9	 1.1	 0.9;
	 137	 1	 0	 0	 0	 0	 9	 1	 0	 138	 9	 1.1	 0.9;
	 138	 1	 4.2	 1.1	 0	 0	 9	 1	 0	 138	 9	 1.1	 0.9;
	 139	 1	 0	 0	 0	 0	 9	 1	 0	 138	 9	 1.1	 0.9;
	 140	 1	 24.81	 6.83	 0	 0	 9	 1	 0	 138	 9	 1.1	 0.9;
	 141	 1	 5.05	 1.62	 0	 0	 9	 1	 0	 138	 9	 1.1	 0.9;
	 142	 1	 5.96	 1.86	 0	 0	 9	 1	 0	 138	 9	 1.1	 0.9;
	 143	 1	 1.08	 0.38	 0	 0	 9	 1	 0	 138	 9	 1.1	 0.9;
	 144	 1	 0	 0	 0	 0	 9	 1	 0	 138	 9	 1.1	 0.9;
	 145	 1	 0	 0	 0	 0	 9	 1	 0	 138	 9	 1.1	 0.9;
	 146	 1	 11.42	 5	 0	 0	 9	 1	 0	 138	 9	 1.1	 0.9;
	 147	 2	 11.6	 8.9	 0	 0	 9	 1	 0	 138	 9	 1.1	 0.9;
	 148	 1	 0.25	 0.18	 0	 0	 9	 1	 0	 138	 9	 1.1	 0.9;
	 149	 1	 0	 0	 0	 0	 9	 1	 0	 138	 9	 1.1	 0.9;
	 150	 1	 40.56	-11.45	 0	 0	 9	 1	 0	 138	 9	 1.1	 0.9;
	 151	 1	 35.07	-1.05	 0	 0	 9	 1	 0	 138	 9	 1.1	 0.9;
	 152	 1	 0	 0	 0	-0.66	 9	 1	 0	 138	 9	 1.1	 0.9;
	 153	 1	 0.38	 0.11	 0	 0	 9	 1	 0	 138	 9	 1.1	 0.9;
	 154	 1	 0	 0	 0	 0	 9	 1	 0	 138	 9	 1.1	 0.9;
	 155	 1	 0	 0	 0	 0	 9	 1	 0	 138	 9	 1.1	 0.9;
	 156	 1	 0	 0	 0	 0	 9	 1	 0	 138	 9	 1.1	 0.9;
	 157	 1	 2.58	 0.86	 0	 0	 9	 1	 0	 138	 9	 1.1	 0.9;
	 158	 1	 2.98	 0.9	 0	 0	 9	 1	 0	 138	 9	 1.1	 0.9;
	 159	 1	 0	 0	 0	 0	 9	 1	 0	 138	 9	 1.1	 0.9;
	 160	 1	 10.56	 3.24	 0	 0	 9	 1	 0	 138	 9	 1.1	 0.9;
	 161	 1	 14.07	 4.43	 0	 0	 9	 1	 0	 138	 9	 1.1	 0.9;
	 162	 1	 0	 0	 0	 0	 9	 1	 0	 138	 9	 1.1	 0.9;
	 163	 1	 7.32	 5.42	 0	 0	 9	 1	 0	 138	 9	 1.1	 0.9;
	 164	 1	 1.71	 0.63	 0	 0	 9	 1	 0	 138	 9	 1.1	 0.9;
	 165	 1	 0	 0	 0	 0	 9	 1	 0	 138	 9	 1.1	 0.9;
	 166	 2	 29.83	 39.5	 0	 0	 9	 1	 0	 138	 9	 1.1	 0.9;
	 167	 1	 8.15	 3.31	 0	 0	 9	 1	 0	 138	 9	 1.1	 0.9;
	 168	 1	 4.75	 0.56	 0	 0	 9	 1	 0	 138	 9	 1.1	 0.9;
	 169	 1	 7.59	 0.87	 0	 0	 9	 1	 0	 138	 9	 1.1	 0.9;
	 170	 1	 0	 0	 0	 0	 9	 1	 0	 138	 9	 1.1	 0.9;
	 171	 1	 0	 0	 0	 0	 9	 1	 0	 138	 9	 1.1	 0.9;
	 172	 1	 8.53	 2.64	 0	 0	 9	 1	 0	 138	 9	 1.1	 0.9;
	 173	 1	 14.95	 4.5	 0	 0	 9	 1	 0	 138	 9	 1.1	 0.9;
	 174	 1	 4.56	 1.78	 0	 0	 9	 1	 0	 138	 9	 1.1	 0.9;
	 175	 1	 0	 0	 0	 0	 9	 1	 0	 138	 9	 1.1	 0.9;
	 176	 1	 1.5	 0.27	 0	 0	 9	 1	 0	 138	 9	 1.1	 0.9;
	 177	 1	 0	 0	 0	 0	 9	 1	 0	 138	 9	 1.1	 0.9;
	 178	 2	 7.03	 2.47	 0	 0	 9	 1	 0	 138	 9	 1.1	 0.9;
	 179	 1	 0	 0.04	 0	 0	 9	 1	 0	 138	 9	 1.1	 0.9;
	 180	 1	 5.13	 1.71	 0	 0	 9	 1	 0	 138	 9	 1.1	 0.9;
	 181	 1	 5.05	 1.71	 0	 0	 9	 1	 0	 138	 9	 1.1	 0.9;
	 182	 1	 0	 0	 0	 0	 9	 1	 0	 138	 9	 1.1	 0.9;
	 183	 1	 0	 0	 0	 0	 9	 1	 0	 138	 9	 1.1	 0.9;
	 184	 1	 12.32	 3.76	 0	 0	 9	 1	 0	 138	 9	 1.1	 0.9;
	 185	 1	 6	 1.87	 0	 0	 9	 1	 0	 138	 9	 1.1	 0.9;
	 186	 1	 6.37	 1.71	 0	 0	 9	 1	 0	 138	 9	 1.1	 0.9;
	 187	 1	 6.51	 1.61	 0	 0	 9	 1	 0	 138	 9	 1.1	 0.9;
	 188	 1	 7.32	 2.38	 0	 0	 9	 1	 0	 138	 9	 1.1	 0.9;
	 189	 1	 5.29	 1.7	 0	 0	 9	 1	 0	 138	 9	 1.1	 0.9;
	 190	 1	 9.63	 2.5	 0	 0	 9	 1	 0	 138	 9	 1.1	 0.9;
	 191	 1	 0	 0	 0	 0	 9	 1	 0	 138	 9	 1.1	 0.9;
	 192	 1	 10.87	-33.69	 0	 0	 9	 1	 0	 138	 9	 1.1	 0.9;
	 193	 1	 7.33	 2.11	 0	 0	 9	 1	 0	 138	 9	 1.1	 0.9;
	 194	 1	 11.01	 3.73	 0	 0	 9	 1	 0	 138	 9	 1.1	 0.9;
	 195	 1	 7.33	 3.59	 0	 0	 9	 1	 0	 138	 9	 1.1	 0.9;
	 196	 1	 0	 0	 0	 0	 10	 1	 0	 345	 10	 1.1	 0.9;
	 197	 1	 0	 0	 0	-7.12	 10	 1	 0	 345	 10	 1.1	 0.9;
	 198	 1	 3.53	 1.91	 0	 0	 10	 1	 0	 345	 10	 1.1	 0.9;
	 199	 1	 0	 0	 0	-9.61	 10	 1	 0	 345	 10	 1.1	 0.9;
	 200	 1	 0	 0	 0	 0	 10	 1	 0	 345	 10	 1.1	 0.9;
...
];

mpc_regionR2.gen = [
%	bus         Pg          Qg          Qmax        Qmin        Vg          mBase       status      Pmax        Pmin        Pc1         Pc2         Qc1min      Qc1max      Qc2min      Qc2max      ramp_agc    ramp_10     ramp_30     ramp_q      apf         
	 9	 228.25	 0	 195	-195	 1	 252.98	 1	 389	 67.5	 0	 0	 0	 0	 0	 0	 0	 0	 0	 0	 256.25;
	 10	 192.88	 0	 150	-150	 1	 267.71	 1	 300	 85.76	 0	 0	 0	 0	 0	 0	 0	 0	 0	 0	 426.557;
	 10	 230.22	 0	 186	-186	 1	 256.16	 1	 371	 89.44	 0	 0	 0	 0	 0	 0	 0	 0	 0	 0	 444.218;
	 11	 0	 0	 18	-18	 1	 48	 0	 35	 20	 0	 0	 0	 0	 0	 0	 0	 0	 0	 0	 55;
	 11	 133.9575	 0	 125	-125	 1	 55	 1	 250	 17.915	 0	 0	 0	 0	 0	 0	 0	 0	 0	 0	 55;
	 12	 39.4575	 7	 45	-31	 1	 55	 1	 61	 17.915	 0	 0	 0	 0	 0	 0	 0	 0	 0	 0	 55;
	 20	 0	 0	 43	-43	 1	 50	 0	 86	 19	 0	 0	 0	 0	 0	 0	 0	 0	 0	 0	 50;
	 24	 59.525	 66	 192	-60	 1	 100	 1	 119	 0.05	 0	 0	 0	 0	 0	 0	 0	 0	 0	 0	 74.505;
	 25	 0	 0	 8	-8	 1	 24	 0	 5	 0	 0	 0	 0	 0	 0	 0	 0	 0	 0	 0	 24;
	 25	 0	 0	 9	-9	 1	 17	 0	 18	 2	 0	 0	 0	 0	 0	 0	 0	 0	 0	 0	 17;
	 26	 61.25	-2.5	 178	-183	 1	 15	 1	 121	 1.5	 0	 0	 0	 0	 0	 0	 0	 0	 0	 0	 15;
	 26	 0	 0	 20	-20	 1	 15	 0	 40	 1.5	 0	 0	 0	 0	 0	 0	 0	 0	 0	 0	 15;
	 26	 0	 0	 35	-35	 1	 15	 0	 69	 1.5	 0	 0	 0	 0	 0	 0	 0	 0	 0	 0	 15;
	 32	 0	 0	 135	-135	 1	 100	 0	 269	 3.005	 0	 0	 0	 0	 0	 0	 0	 0	 0	 0	 265;
	 46	 0	 0	 15	-15	 1	 12	 0	 30	 0	 0	 0	 0	 0	 0	 0	 0	 0	 0	 0	 12;
	 46	 110.5	 3.5	 184	-177	 1	 12	 1	 221	 0	 0	 0	 0	 0	 0	 0	 0	 0	 0	 0	 12;
	 53	 0	 0	 33.33	-33.33	 1	 100	 0	 61	 6.335	 0	 0	 0	 0	 0	 0	 0	 0	 0	 0	 27.674;
	 67	 0	 0	 33.33	-33.33	 1	 100	 0	 36	 1.665	 0	 0	 0	 0	 0	 0	 0	 0	 0	 0	 268;
	 68	 259.25	 0	 226	-226	 1	 267.05	 1	 451	 67.5	 0	 0	 0	 0	 0	 0	 0	 0	 0	 0	 256.25;
	 71	 91.4375	 0	 88.8	-88.8	 1	 100	 1	 151	 31.875	 0	 0	 0	 0	 0	 0	 0	 0	 0	 0	 171.015;
	 76	 113.5	 0	 224.4	-224.4	 1	 282.49	 1	 167	 60	 0	 0	 0	 0	 0	 0	 0	 0	 0	 0	 268.77;
	 77	 161.5	 0	 132	-132	 1	 281.34	 1	 263	 60	 0	 0	 0	 0	 0	 0	 0	 0	 0	 0	 268.75;
	 78	 184.75	-11.025	 168.75	-190.8	 1	 252.98	 1	 302	 67.5	 0	 0	 0	 0	 0	 0	 0	 0	 0	 0	 256.25;
	 79	 0	 0	 45	-45	 1	 135	 0	 31	-135	 0	 0	 0	 0	 0	 0	 0	 0	 0	 0	 135;
	 79	 0	 0	 45	-45	 1	 135	 0	 87	-135	 0	 0	 0	 0	 0	 0	 0	 0	 0	 0	 135;
	 80	 0	 0	 45	-45	 1	 135	 0	 26	-135	 0	 0	 0	 0	 0	 0	 0	 0	 0	 0	 135;
	 80	 0	 0	 45	-45	 1	 135	 0	 42	-135	 0	 0	 0	 0	 0	 0	 0	 0	 0	 0	 135;
	 87	 0	 0	 22	-22	 1	 50	 0	 43	 19	 0	 0	 0	 0	 0	 0	 0	 0	 0	 0	 50;
	 87	 0	 0	 71	-71	 1	 50	 0	 141	 19	 0	 0	 0	 0	 0	 0	 0	 0	 0	 0	 50;
	 87	 0	 0	 58	-58	 1	 50	 0	 115	 19	 0	 0	 0	 0	 0	 0	 0	 0	 0	 0	 50;
	 88	 0	 0	 32	-32	 1	 50	 0	 64	 19	 0	 0	 0	 0	 0	 0	 0	 0	 0	 0	 50;
	 97	 0	 0	 258	-258	 1	 100	 0	 516	 0.06	 0	 0	 0	 0	 0	 0	 0	 0	 0	 0	 295;
	 98	 111.5	 19	 120	-82	 1	 273.78	 1	 163	 60	 0	 0	 0	 0	 0	 0	 0	 0	 0	 0	 268.75;
	 100	 26.3925	 0	 23	-23	 1	 100	 1	 46	 6.785	 0	 0	 0	 0	 0	 0	 0	 0	 0	 0	 60.349;
	 104	 81.5	 0	 202.8	-202.8	 1	 160.45	 1	 128	 35	 0	 0	 0	 0	 0	 0	 0	 0	 0	 0	 156.25;
	 104	 86	 0	 202.8	-202.8	 1	 143.77	 1	 137	 35	 0	 0	 0	 0	 0	 0	 0	 0	 0	 0	 125;
	 126	 34.5	-2	 180	-184	 1	 42.43	 1	 69	 0	 0	 0	 0	 0	 0	 0	 0	 0	 0	 0	 297;
	 127	 43.61	 0	 42	-42	 1	 100	 1	 83	 4.22	 0	 0	 0	 0	 0	 0	 0	 0	 0	 0	 38.249;
	 129	 78.25	-54	 76	-184	 1	 78	 1	 151	 5.5	 0	 0	 0	 0	 0	 0	 0	 0	 0	 0	 78;
	 147	 88.75	-45	 84	-174	 1	 83.96	 1	 167	 10.5	 0	 0	 0	 0	 0	 0	 0	 0	 0	 0	 86.25;
	 166	 82.5	 21.7	 131	-87.6	 1	 258.66	 1	 165	 0	 0	 0	 0	 0	 0	 0	 0	 0	 0	 0	 268.721;
	 178	 46.655	 2.5	 190	-185	 1	 100	 1	 91	 2.31	 0	 0	 0	 0	 0	 0	 0	 0	 0	 0	 27.174;
	 204	 143.5	 0	 196.8	-196.8	 1	 282.49	 1	 227	 60	 0	 0	 0	 0	 0	 0	 0	 0	 0	 0	 268.75;
	 205	 245	 0	 215	-215	 1	 281.34	 1	 430	 60	 0	 0	 0	 0	 0	 0	 0	 0	 0	 0	 268.75;
	 208	 174.25	-10.5	 141	-162	 1	 252.98	 1	 281	 67.5	 0	 0	 0	 0	 0	 0	 0	 0	 0	 0	 256.25;
	 209	 182.75	 0	 149	-149	 1	 267.71	 1	 298	 67.5	 0	 0	 0	 0	 0	 0	 0	 0	 0	 0	 268.75;
	 209	 223.25	 0	 190	-190	 1	 256.16	 1	 379	 67.5	 0	 0	 0	 0	 0	 0	 0	 0	 0	 0	 256.25;
	 210	 0	 0	 16	-16	 1	 48	 0	 27	 20	 0	 0	 0	 0	 0	 0	 0	 0	 0	 0	 55;
	 210	 70.9575	 0	 62	-62	 1	 55	 1	 124	 17.915	 0	 0	 0	 0	 0	 0	 0	 0	 0	 0	 55;
	 211	 38.9575	 2.1	 45	-40.8	 1	 55	 1	 60	 17.915	 0	 0	 0	 0	 0	 0	 0	 0	 0	 0	 55;
	 215	 51.5	-0.5	 177	-178	 1	 17	 1	 103	 0	 0	 0	 0	 0	 0	 0	 0	 0	 0	 0	 17;
	 229	 0	 0	 16.67	-16.67	 1	 50	 0	 30	 19	 0	 0	 0	 0	 0	 0	 0	 0	 0	 0	 50;
	 236	 0	 0	 8	-8	 1	 24	 0	 3	 2.5	 0	 0	 0	 0	 0	 0	 0	 0	 0	 0	 24;
	 236	 0	 0	 51	-51	 1	 17	 0	 101	 2	 0	 0	 0	 0	 0	 0	 0	 0	 0	 0	 17;
	 237	 43.25	 14.5	 199	-170	 1	 15	 1	 85	 1.5	 0	 0	 0	 0	 0	 0	 0	 0	 0	 0	 15;
	 237	 0	 0	 94	-94	 1	 15	 0	 188	 1.5	 0	 0	 0	 0	 0	 0	 0	 0	 0	 0	 15;
	 237	 0	 0	 95	-95	 1	 15	 0	 189	 1.5	 0	 0	 0	 0	 0	 0	 0	 0	 0	 0	 15;
	 241	 234	 0	 204	-204	 1	 273.78	 1	 408	 60	 0	 0	 0	 0	 0	 0	 0	 0	 0	 0	 268.75;
	 243	 0	 0	 118	-118	 1	 100	 0	 235	 3.005	 0	 0	 0	 0	 0	 0	 0	 0	 0	 0	 255;
	 260	 0	 0	 20	-20	 1	 12	 0	 40	 0	 0	 0	 0	 0	 0	 0	 0	 0	 0	 0	 12;
	 260	 99.5	 2	 179	-175	 1	 12	 1	 199	 0	 0	 0	 0	 0	 0	 0	 0	 0	 0	 0	 12;
	 261	 33	 4.5	 178	-169	 1	 14.4	 1	 66	 0	 0	 0	 0	 0	 0	 0	 0	 0	 0	 0	 253;
	 291	 235.75	 0	 202	-202	 1	 267.05	 1	 404	 67.5	 0	 0	 0	 0	 0	 0	 0	 0	 0	 0	 256.25;
	 293	 0	 0	 75	-75	 1	 225	 0	 143	 67.5	 0	 0	 0	 0	 0	 0	 0	 0	 0	 0	 225;
	 293	 122.75	 25.5	 140	-89	 1	 258.02	 1	 178	 67.5	 0	 0	 0	 0	 0	 0	 0	 0	 0	 0	 256.25;
	 297	 129.5	 5	 194	-184	 1	 42.43	 1	 259	 0	 0	 0	 0	 0	 0	 0	 0	 0	 0	 0	 258;
	 297	 0	 0	 39	-39	 1	 100	 0	 78	 69.85	 0	 0	 0	 0	 0	 0	 0	 0	 0	 0	 154.701;
	 298	 0	 0	 49	-49	 1	 100	 0	 97	 10.52	 0	 0	 0	 0	 0	 0	 0	 0	 0	 0	 36.045;
	 306	 0	 0	 33.33	-33.33	 1	 100	 0	 50.18	 14	 0	 0	 0	 0	 0	 0	 0	 0	 0	 0	 65.179;
	 317	 140.5625	 0	 128	-128	 1	 206	 1	 255	 26.125	 0	 0	 0	 0	 0	 0	 0	 0	 0	 0	 202;
	 328	 0	 0	 72	-72	 1	 7.3	 0	 143	 2.375	 0	 0	 0	 0	 0	 0	 0	 0	 0	 0	 284;
	 331	 191.4375	 0	 191	-191	 1	 100	 1	 381	 1.875	 0	 0	 0	 0	 0	 0	 0	 0	 0	 0	 46.373;
	 335	 173.7875	 12.5	 198	-173	 1	 100	 1	 346	 1.575	 0	 0	 0	 0	 0	 0	 0	 0	 0	 0	 292;
	 335	 45.69	 0	 45	-45	 1	 100	 1	 90	 1.38	 0	 0	 0	 0	 0	 0	 0	 0	 0	 0	 263;
	 336	 67.685	 0	 61	-61	 1	 100	 1	 121	 14.37	 0	 0	 0	 0	 0	 0	 0	 0	 0	 0	 111.862;
	 337	 0	 0	 97	-97	 1	 100	 0	 193	 6.755	 0	 0	 0	 0	 0	 0	 0	 0	 0	 0	 28.506;
	 345	 0	 0	 33.33	-33.33	 1	 100	 0	 23	 0.665	 0	 0	 0	 0	 0	 0	 0	 0	 0	 0	 292;
	 349	 107.9125	 0	 99	-99	 1	 100	 1	 197	 18.825	 0	 0	 0	 0	 0	 0	 0	 0	 0	 0	 67.344;
	 352	 481.46	 0	 450	-450	 1	 100	 1	 899	 63.92	 0	 0	 0	 0	 0	 0	 0	 0	 0	 0	 490.293;
	 356	 0	 0	 33.33	-33.33	 1	 100	 0	 34	 10.115	 0	 0	 0	 0	 0	 0	 0	 0	 0	 0	 35.226;
	 359	 0	 0	 300	-300	 1	 100	 0	 599	 0	 0	 0	 0	 0	 0	 0	 0	 0	 0	 0	 284;
	 359	 0	 0	 33.33	-33.33	 1	 100	 0	 13	 3.22	 0	 0	 0	 0	 0	 0	 0	 0	 0	 0	 290;
	 366	 62.1125	-3	 175	-181	 1	 100	 1	 119	 5.225	 0	 0	 0	 0	 0	 0	 0	 0	 0	 0	 25.45;
	 367	 0	 0	 33.33	-33.33	 1	 100	 0	 40	 0	 0	 0	 0	 0	 0	 0	 0	 0	 0	 0	 273;
	 367	 0	 0	 38	-38	 1	 100	 0	 75	 1.36	 0	 0	 0	 0	 0	 0	 0	 0	 0	 0	 258;
	 373	 478.435	 0	 344	-344	 1	 100	 1	 688	 268.87	 0	 0	 0	 0	 0	 0	 0	 0	 0	 0	 764.714;
	 374	 479.9725	 0	 372	-372	 1	 100	 1	 743	 216.945	 0	 0	 0	 0	 0	 0	 0	 0	 0	 0	 650.836;
	 375	 0	 0	 66	-66	 1	 100	 0	 131	 0	 0	 0	 0	 0	 0	 0	 0	 0	 0	 0	 42;
	 375	 0	 0	 57	-57	 1	 100	 0	 114	 0.475	 0	 0	 0	 0	 0	 0	 0	 0	 0	 0	 290;
	 378	 15.1025	 0	 30	-30	 1	 100	 1	 30	 0.205	 0	 0	 0	 0	 0	 0	 0	 0	 0	 0	 67.887;
	 379	 119.8325	 0	 119	-119	 1	 100	 1	 238	 1.665	 0	 0	 0	 0	 0	 0	 0	 0	 0	 0	 298;
	 383	 248.85	 0	 209	-209	 1	 100	 1	 417	 80.7	 0	 0	 0	 0	 0	 0	 0	 0	 0	 0	 258.946;
	 389	 0	 0	 106	-106	 1	 100	 0	 211	 9.935	 0	 0	 0	 0	 0	 0	 0	 0	 0	 0	 34.866;
	 391	 242.88	 0	 172	-172	 1	 100	 1	 344	 141.76	 0	 0	 0	 0	 0	 0	 0	 0	 0	 0	 425.287;
	 402	 314.75	 0	 234	-234	 1	 800	 1	 468	 161.5	 0	 0	 0	 0	 0	 0	 0	 0	 0	 0	 810.875;
	 408	 124.095	 0	 121	-121	 1	 100	 1	 242	 6.19	 0	 0	 0	 0	 0	 0	 0	 0	 0	 0	 29.853;
	 410	 77.06	 64.5	 199	-70	 1	 100	 1	 139	 15.12	 0	 0	 0	 0	 0	 0	 0	 0	 0	 0	 70.42;
	 421	 0	 0	 33.33	-33.33	 1	 100	 0	 39	 11.875	 0	 0	 0	 0	 0	 0	 0	 0	 0	 0	 38.75;
	 433	 274.0625	 0	 261	-261	 1	 224	 1	 522	 26.125	 0	 0	 0	 0	 0	 0	 0	 0	 0	 0	 138.4;
	 446	 95.625	 23.05	 125.1	-79	 1	 224	 1	 158	 33.25	 0	 0	 0	 0	 0	 0	 0	 0	 0	 0	 207.775;
	 450	 0	 0	 210	-210	 1	 100	 0	 420	 0	 0	 0	 0	 0	 0	 0	 0	 0	 0	 0	 298;
	 463	 100.365	 0	 117.84	-117.84	 1	 100	 1	 176	 24.73	 0	 0	 0	 0	 0	 0	 0	 0	 0	 0	 86.614;
	 470	 113.78	 0	 112	-112	 1	 100	 1	 224	 3.56	 0	 0	 0	 0	 0	 0	 0	 0	 0	 0	 26.464;
	 476	 149.0625	 0	 117	-117	 1	 393	 1	 234	 64.125	 0	 0	 0	 0	 0	 0	 0	 0	 0	 0	 339.975;
	 483	 148.5625	 0	 136	-136	 1	 206	 1	 271	 26.125	 0	 0	 0	 0	 0	 0	 0	 0	 0	 0	 201.312;
	 486	 144.035	 16	 176	-144	 1	 100	 1	 288	 0.07	 0	 0	 0	 0	 0	 0	 0	 0	 0	 0	 262;
	 496	 0	 0	 83	-83	 1	 13.5	 0	 165	 5.7	 0	 0	 0	 0	 0	 0	 0	 0	 0	 0	 26.4;
	 499	 250.5425	 0	 232	-232	 1	 100	 1	 463	 38.085	 0	 0	 0	 0	 0	 0	 0	 0	 0	 0	 141.25;
	 502	 47.9325	-60	 45	-165	 1	 31.8	 1	 89	 6.865	 0	 0	 0	 0	 0	 0	 0	 0	 0	 0	 30.2;
	 502	 77.2775	 51	 176	-74	 1	 100	 1	 147	 7.555	 0	 0	 0	 0	 0	 0	 0	 0	 0	 0	 33.131;
	 505	 0	 0	 266.67	-266.67	 1	 800	 0	 8	 0	 0	 0	 0	 0	 0	 0	 0	 0	 0	 0	 279;
	 512	 126.6825	 0	 126	-126	 1	 100	 1	 252	 1.365	 0	 0	 0	 0	 0	 0	 0	 0	 0	 0	 254;
	 518	 80.9525	 0	 78	-78	 1	 100	 1	 155	 6.905	 0	 0	 0	 0	 0	 0	 0	 0	 0	 0	 55.068;
	 527	 0	 0	 33.33	-33.33	 1	 100	 0	 39	 18.425	 0	 0	 0	 0	 0	 0	 0	 0	 0	 0	 51.85;
	 528	 39.5	 0	 49.95	-49.95	 1	 100	 1	 79	 0	 0	 0	 0	 0	 0	 0	 0	 0	 0	 0	 69.375;
	 528	 45.0175	 73.5	 189	-42	 1	 100	 1	 83	 7.035	 0	 0	 0	 0	 0	 0	 0	 0	 0	 0	 37.5;
	 530	 38	 0	 54	-54	 1	 100	 1	 76	 0	 0	 0	 0	 0	 0	 0	 0	 0	 0	 0	 75;
	 532	 22.5	 0	 54	-54	 1	 100	 1	 45	 0	 0	 0	 0	 0	 0	 0	 0	 0	 0	 0	 75;
	 533	 0	 0	 106	-106	 1	 100	 0	 212	 36.22	 0	 0	 0	 0	 0	 0	 0	 0	 0	 0	 87.436;
	 535	 0	 0	 116	-116	 1	 100	 0	 231	 5.72	 0	 0	 0	 0	 0	 0	 0	 0	 0	 0	 26.442;
	 537	 42.2575	 79.5	 197	-38	 1	 100	 1	 76	 8.515	 0	 0	 0	 0	 0	 0	 0	 0	 0	 0	 35.433;
	 546	 240.5	 0	 206	-206	 1	 309.12	 1	 411	 70	 0	 0	 0	 0	 0	 0	 0	 0	 0	 0	 275;
	 546	 241	 0	 206	-206	 1	 297.01	 1	 412	 70	 0	 0	 0	 0	 0	 0	 0	 0	 0	 0	 262.5;
	 547	 0	 0	 75	-75	 1	 225	 0	 140	 10	 0	 0	 0	 0	 0	 0	 0	 0	 0	 0	 225;
	 547	 212.1125	 0	 168	-168	 1	 312.43	 1	 335	 89.225	 0	 0	 0	 0	 0	 0	 0	 0	 0	 0	 445.28;
	 547	 501.1125	 0	 457	-457	 1	 291.94	 1	 913	 89.225	 0	 0	 0	 0	 0	 0	 0	 0	 0	 0	 445.28;
	 548	 44.2675	 0	 43.11	-43.11	 1	 100	 1	 77	 11.535	 0	 0	 0	 0	 0	 0	 0	 0	 0	 0	 55.801;
	 549	 68.115	 0	 170.4	-170.4	 1	 100	 1	 124	 12.23	 0	 0	 0	 0	 0	 0	 0	 0	 0	 0	 94.625;
	 551	 0	 0	 36	-36	 1	 12	 0	 71	 0	 0	 0	 0	 0	 0	 0	 0	 0	 0	 0	 12;
	 551	 0	 0	 27	-27	 1	 6	 0	 54	 0	 0	 0	 0	 0	 0	 0	 0	 0	 0	 0	 257;
	 551	 37	 10	 189	-169	 1	 22.8	 1	 74	 0	 0	 0	 0	 0	 0	 0	 0	 0	 0	 0	 23.75;
	 553	 119.835	 0	 111	-111	 1	 100	 1	 222	 17.67	 0	 0	 0	 0	 0	 0	 0	 0	 0	 0	 118.114;
	 557	 111	 19.5	 120	-81	 1	 281.34	 1	 162	 60	 0	 0	 0	 0	 0	 0	 0	 0	 0	 0	 268.75;
	 557	 84.9325	 0	 79	-79	 1	 100	 1	 157	 12.865	 0	 0	 0	 0	 0	 0	 0	 0	 0	 0	 84.998;
	 558	 0	 0	 33.33	-33.33	 1	 100	 0	 22	 3.715	 0	 0	 0	 0	 0	 0	 0	 0	 0	 0	 264;
	 562	 0	 0	 40	-40	 1	 120	 0	 70	 9	 0	 0	 0	 0	 0	 0	 0	 0	 0	 0	 120;
	 563	 152.5	-17.5	 135	-170	 1	 167.42	 1	 270	 35	 0	 0	 0	 0	 0	 0	 0	 0	 0	 0	 143.75;
	 564	 162.5	-6.9	 169.2	-183	 1	 131.38	 1	 285	 40	 0	 0	 0	 0	 0	 0	 0	 0	 0	 0	 131.25;
	 569	 0	 0	 55	-55	 1	 135	 0	 109	-135	 0	 0	 0	 0	 0	 0	 0	 0	 0	 0	 135;
	 569	 0	 0	 45	-45	 1	 135	 0	 28	-135	 0	 0	 0	 0	 0	 0	 0	 0	 0	 0	 135;
	 570	 0	 0	 45	-45	 1	 135	 0	 4	-135	 0	 0	 0	 0	 0	 0	 0	 0	 0	 0	 135;
	 570	 0	 0	 45	-45	 1	 135	 0	 77	-135	 0	 0	 0	 0	 0	 0	 0	 0	 0	 0	 135;
	 589	 0	 0	 33.33	-33.33	 1	 100	 0	 17	 16.015	 0	 0	 0	 0	 0	 0	 0	 0	 0	 0	 47.029;
	 598	 0	 0	 8	-8	 1	 24	 0	 14	 6	 0	 0	 0	 0	 0	 0	 0	 0	 0	 0	 24;
	 599	 0	 0	 15	-15	 1	 24	 0	 30	 6	 0	 0	 0	 0	 0	 0	 0	 0	 0	 0	 24;
	 601	 0	 0	 79	-79	 1	 100	 0	 157	 25.7	 0	 0	 0	 0	 0	 0	 0	 0	 0	 0	 66.396;
	 604	 107.6125	 45.5	 198	-107	 1	 100	 1	 213	 2.225	 0	 0	 0	 0	 0	 0	 0	 0	 0	 0	 29.949;
	 605	 48	 14	 195	-167	 1	 25	 1	 96	 0	 0	 0	 0	 0	 0	 0	 0	 0	 0	 0	 25;
	 606	 35	 11.5	 196	-173	 1	 25	 1	 70	 0	 0	 0	 0	 0	 0	 0	 0	 0	 0	 0	 25;
	 607	 34	 4	 188	-180	 1	 25	 1	 68	 0	 0	 0	 0	 0	 0	 0	 0	 0	 0	 0	 25;
	 607	 0	 0	 2	-2	 1	 6	 0	 0	 0	 0	 0	 0	 0	 0	 0	 0	 0	 0	 0	 285;
	 625	 0	 0	 58	-58	 1	 50	 0	 116	 5	 0	 0	 0	 0	 0	 0	 0	 0	 0	 0	 50;
	 639	 104.5	 0	 100	-100	 1	 75.76	 1	 199	 10	 0	 0	 0	 0	 0	 0	 0	 0	 0	 0	 55;
	 650	 0	 0	 39	-39	 1	 117	 0	 80	 1	 0	 0	 0	 0	 0	 0	 0	 0	 0	 0	 117;
	 651	 0	 0	 36.67	-36.67	 1	 110	 0	 65	 30	 0	 0	 0	 0	 0	 0	 0	 0	 0	 0	 110;
	 651	 0	 0	 33.33	-33.33	 1	 100	 0	 65	 0	 0	 0	 0	 0	 0	 0	 0	 0	 0	 0	 100;
	 651	 132	 0	 112	-112	 1	 153.67	 1	 224	 40	 0	 0	 0	 0	 0	 0	 0	 0	 0	 0	 119;
	 659	 27.4575	-1.85	 24	-27.7	 1	 100	 1	 47	 7.915	 0	 0	 0	 0	 0	 0	 0	 0	 0	 0	 54.751;
	 662	 0	 0	 122	-122	 1	 46	 0	 244	 1.5	 0	 0	 0	 0	 0	 0	 0	 0	 0	 0	 46;
	 663	 31.75	 2	 35	-31	 1	 63.3	 1	 62	 1.5	 0	 0	 0	 0	 0	 0	 0	 0	 0	 0	 53.75;
	 685	 142.75	 0	 129	-129	 1	 161	 1	 258	 27.5	 0	 0	 0	 0	 0	 0	 0	 0	 0	 0	 161;
	 686	 0	 0	 16.67	-16.67	 1	 50	 0	 23	 17.5	 0	 0	 0	 0	 0	 0	 0	 0	 0	 0	 50;
	 686	 0	 0	 118	-118	 1	 110	 0	 236	 40	 0	 0	 0	 0	 0	 0	 0	 0	 0	 0	 110;
	 687	 0	 0	 36.67	-36.67	 1	 110	 0	 80	 5	 0	 0	 0	 0	 0	 0	 0	 0	 0	 0	 110;
	 687	 194.5	-1.5	 175	-178	 1	 132.29	 1	 349	 40	 0	 0	 0	 0	 0	 0	 0	 0	 0	 0	 137.5;
	 690	 0	 0	 132	-132	 1	 100	 0	 263	 6.775	 0	 0	 0	 0	 0	 0	 0	 0	 0	 0	 28.553;
	 692	 0	 0	 33.33	-33.33	 1	 100	 0	 27	 5.13	 0	 0	 0	 0	 0	 0	 0	 0	 0	 0	 25.264;
	 703	 86.5625	 54.5	 191	-82	 1	 100	 1	 163	 10.125	 0	 0	 0	 0	 0	 0	 0	 0	 0	 0	 53.622;
	 708	 64	 5.5	 180	-169	 1	 42.43	 1	 128	 0	 0	 0	 0	 0	 0	 0	 0	 0	 0	 0	 279;
];

mpc_regionR2.branch = [
%	fbus        tbus        r           x           b           rateA       rateB       rateC       ratio       angle       status      angmin      angmax      
	 1	 2	 2e-05	 0.00021	 0	 876	 876	 876	 0	 0	 1	-30	 30;
	 1	 10	 0.00593	 0.04093	 0.07215	 341	 341	 341	 0	 0	 1	-30	 30;
	 11	 1	 0.00287	 0.10711	 0	 100	 100	 100	 1.00972	 0	 1	-30	 30;
	 12	 2	 0.0014	 0.06927	 0	 160	 160	 160	 0.99664	 0	 1	-30	 30;
	 2	 127	 0.0001	 0.01	 0	 83.7	 98.6	 125.55	 0	 0	 1	-30	 30;
	 3	 4	 2e-05	 0.00021	 0	 876	 876	 876	 0	 0	 1	-30	 30;
	 3	 8	 0.00777	 0.04128	 0.06391	 197	 197	 197	 0	 0	 1	-30	 30;
	 4	 374	 0.0001	 0.01	 0	 198.78	 238.54	 298.17	 0	 0	 1	-30	 30;
	 5	 6	 2e-05	 0.00021	 0	 876	 876	 876	 0	 0	 1	-30	 30;
	 5	 9	 0.00488	 0.03362	 0.05961	 341	 341	 341	 0	 0	 1	-30	 30;
	 26	 5	 0.0014	 0.06831	 0	 160	 160	 160	 1.03811	 0	 1	-30	 30;
	 6	 71	 0.0001	 0.01	 0	 445.51	 534.61	 668.26	 0	 0	 1	-30	 30;
	 7	 8	 2e-05	 0.00021	 0	 876	 876	 876	 0	 0	 1	-30	 30;
	 7	 10	 0.00455	 0.03157	 0.05531	 231	 231	 231	 0	 0	 1	-30	 30;
	 46	 7	 0.00152	 0.06749	 0	 160	 160	 160	 1.06341	 0	 1	-30	 30;
	 9	 10	 2e-05	 0.00021	 0	 876	 876	 876	 0	 0	 1	-30	 30;
	 9	 558	 0.0001	 0.01	 0	 140.51	 168.61	 210.76	 0	 0	 1	-30	 30;
	 10	 68	 0.00139	 0.06852	 0	 160	 160	 160	 1.0224	 0	 1	-30	 30;
	 69	 10	 0.00154	 0.06811	 0	 160	 160	 160	 1.04321	 0	 1	-30	 30;
	 11	 23	 0.03868	 0.10116	 0.0108	 87.61	 113.89	 113.89	 0	 0	 1	-30	 30;
	 11	 26	 0.00719	 0.02248	 0.00246	 62	 62	 62	 0	 0	 1	-30	 30;
	 11	 43	 0.01636	 0.04132	 0.0045	 50	 50	 50	 0	 0	 1	-30	 30;
	 12	 14	 0.00752	 0.02207	 0.00251	 80.22	 104.29	 104.29	 0	 0	 1	-30	 30;
	 12	 25	 0.00719	 0.02256	 0.00247	 62	 62	 62	 0	 0	 1	-30	 30;
	 13	 59	 0.02256	 0.04314	 0.004	 49	 49	 49	 0	 0	 1	-30	 30;
	 14	 97	 0.0001	 0.01	 0	 83.7	 98.6	 125.55	 0	 0	 1	-30	 30;
	 15	 16	 0.00058	 0.00157	 0.00021	 75	 75	 75	 0	 0	 1	-30	 30;
	 16	 58	 0.00107	 0.00298	 0.0004	 112.72	 146.54	 146.54	 0	 0	 1	-30	 30;
	 16	 64	 0.00182	 0.00529	 0.00071	 111.39	 144.81	 144.81	 0	 0	 1	-30	 30;
	 17	 20	 0.00496	 0.0162	 0.00164	 75	 75	 75	 0	 0	 1	-30	 30;
	 18	 62	 0.00033	 0.00099	 0.00013	 75	 75	 75	 0	 0	 1	-30	 30;
	 19	 63	 0.00033	 0.00091	 0.00012	 75	 75	 75	 0	 0	 1	-30	 30;
	 20	 28	 0.00934	 0.0257	 0.00253	 63	 63	 63	 0	 0	 1	-30	 30;
	 20	 30	 0.01504	 0.04033	 0.00401	 63	 63	 63	 0	 0	 1	-30	 30;
	 21	 22	 8e-05	 0.00083	 0	 438	 438	 438	 0	 0	 1	-30	 30;
	 21	 44	 0.00512	 0.01669	 0.00168	 114	 114	 114	 0	 0	 1	-30	 30;
	 22	 46	 0.02826	 0.0924	 0.00933	 99	 99	 99	 0	 0	 1	-30	 30;
	 24	 46	 0.01669	 0.04364	 0.00566	 106.38	 138.3	 138.3	 0	 0	 1	-30	 30;
	 24	 123	 0.0001	 0.01	 0	 83.7	 98.6	 125.55	 0	 0	 1	-30	 30;
	 25	 26	 8e-05	 0.00083	 0	 438	 438	 438	 0	 0	 1	-30	 30;
	 25	 38	 0.01595	 0.0414	 0.00404	 50	 50	 50	 0	 0	 1	-30	 30;
	 26	 37	 0.01595	 0.04132	 0.00403	 50	 50	 50	 0	 0	 1	-30	 30;
...